190
2N2OBn_with_SPEA_v2__4_m052x_631gd.gjf
 O                  2.00769400    0.01435800   -1.05553200
 C                  1.45085400    1.02995700   -1.83716300
 C                  0.24500700    1.64148500    0.09354400
 C                  1.08679900    2.89437600    0.32487900
 C                  2.46331700    2.74259400   -0.31617000
 C                  2.36103900    2.25940400   -1.75911700
 O                  0.17803900    1.37258900   -1.31586300
 C                 -1.16992700    1.77748100    0.60444900
 C                  2.07331800   -2.26205500   -0.41564200
 C                  0.59649100   -2.65386200   -0.54169600
 C                  0.26971800   -2.41240600   -2.01536400
 O                  1.36483400   -1.67092200   -2.57286500
 C                  2.27752900   -1.27660400   -1.58569300
 C                 -0.97439800   -1.57040600   -2.26537400
 C                  3.65691100   -1.25350000   -2.21699300
 O                 -2.17172700   -2.08251300   -1.70417100
 O                 -1.83308100    0.51427700    0.63108800
 C                 -4.49288200   -2.57498500    1.55552100
 C                 -4.17650000   -3.46419100    0.35380900
 N                 -4.66861400   -2.92005700   -0.91870600
 N                 -3.80070400   -1.28245700    1.58874800
 C                 -2.36526200   -1.50141300    1.80640100
 C                 -4.02877200   -3.55523400   -2.07482800
 C                 -1.53587200   -0.23431900    1.80652600
 C                 -2.51199300   -3.39644000   -2.12176500
 C                  6.12951500   -2.71803500   -1.34824200
 C                  5.94981200   -3.81474100   -0.50121200
 C                  6.52736600   -3.83307100    0.76376200
 C                  7.28805300   -2.74713900    1.19858300
 C                  7.47297100   -1.65181000    0.36023900
 C                  6.89390300   -1.63874800   -0.90785600
 C                  5.44600400   -2.69868500   -2.69516300
 O                  4.03259800   -2.56950500   -2.55272600
 O                  1.25936500    3.07314500    1.71986500
 C                 -0.53525200    4.51817900    2.42066100
 C                 -1.12645100    3.88721300    3.51940100
 C                 -2.50965300    3.83520200    3.64743900
 C                 -3.32124400    4.41950400    2.67412100
 C                 -2.74213300    5.07317300    1.59101100
 C                 -1.35393200    5.12549800    1.46939800
 C                  0.95239900    4.38160500    2.20895300
 O                  3.08914600    4.00792200   -0.23637200
 C                  4.95306400    3.25164900    1.16056100
 C                  4.67026100    3.79452800    2.41484900
 C                  5.04569600    3.12665600    3.57428000
 C                  5.70130700    1.89982300    3.49044600
 C                  5.97615000    1.34512300    2.24523000
 C                  5.60140200    2.01897600    1.08427600
 C                  4.51368300    3.97980000   -0.08496000
 O                  2.24388000   -1.71687500    0.86854500
 C                  3.54055000   -1.01034700    2.69654300
 C                  4.21314400   -1.82265100    3.60664500
 C                  4.12944900   -1.56897300    4.97456400
 C                  3.36375400   -0.50346100    5.43815000
 C                  2.69275800    0.31505500    4.52987200
 C                  2.78249900    0.06485500    3.16609200
 C                  3.56951800   -1.30746300    1.22255700
 O                  0.29610200   -4.00664100   -0.25366400
 C                 -0.00746800   -4.17885100    2.20613900
 C                  0.46524100   -3.26135700    3.14576600
 C                 -0.22960000   -3.04692200    4.33545700
 C                 -1.40637900   -3.74511100    4.59202500
 C                 -1.89795800   -4.64629100    3.64680600
 C                 -1.20159000   -4.85919500    2.46118000
 C                  0.80705300   -4.51962600    0.97847400
 O                  3.65892100    1.92556000   -2.21817700
 C                  5.13376200    1.48907600   -4.04620400
 C                  6.29390000    1.64428500   -3.28558400
 C                  7.48684600    1.05861400   -3.69667700
 C                  7.53311300    0.31116500   -4.87258700
 C                  6.38026100    0.15430300   -5.63501200
 C                  5.18594600    0.73845900   -5.21945100
 C                  3.84249800    2.13525000   -3.61494500
 C                 -5.67140600    0.21196600    2.22668100
 C                 -5.59757200    1.38874700    1.47288700
 C                 -6.75523300    2.04326700    1.06203100
 C                 -8.00630000    1.52846700    1.40215700
 C                 -8.09038400    0.36368500    2.15850400
 C                 -6.92776000   -0.28633600    2.57171300
 C                 -4.39296200   -0.46734400    2.66196600
 C                 -6.81691900   -2.08880600   -1.89560800
 C                 -7.24840800   -0.88566600   -1.32810300
 C                 -7.91117900    0.06418700   -2.10028000
 C                 -8.14138600   -0.17314500   -3.45500900
 C                 -7.72170200   -1.37094100   -4.02590200
 C                 -7.07111100   -2.32572300   -3.24666500
 C                 -6.13040800   -3.11487100   -1.02528600
 H                  1.28701200    0.69215100   -2.86021400
 H                  0.73161500    0.79928500    0.59025900
 H                  0.57950000    3.75792200   -0.12247300
 H                  3.01835700    1.99776900    0.26164100
 H                  1.92914900    3.06162200   -2.36938500
 H                 -1.74858800    2.43177000   -0.04597600
 H                 -1.15605300    2.20245800    1.60776500
 H                  2.72283100   -3.12739900   -0.58696600
 H                  0.02584900   -1.98059500    0.10626600
 H                  0.22800200   -3.37643900   -2.52432700
 H                 -0.81352800   -0.60230100   -1.79409600
 H                 -1.09376700   -1.43566400   -3.34851900
 H                  4.35500000   -0.79647800   -1.51190800
 H                  3.62174200   -0.62351800   -3.11223800
 H                 -4.25671200   -3.15254100    2.46415100
 H                 -5.56424600   -2.36891500    1.58220800
 H                 -4.61469300   -4.45644200    0.54265800
 H                 -3.10095400   -3.60984000    0.27941700
 H                 -2.17152400   -2.03413600    2.74683900
 H                 -2.00218900   -2.12644600    0.99268600
 H                 -4.46518900   -3.09749800   -2.96435800
 H                 -4.26100500   -4.63158700   -2.11647900
 H                 -0.47955300   -0.52143300    1.83314400
 H                 -1.72136800    0.39319100    2.68454900
 H                 -1.99889000   -4.12343100   -1.48751000
 H                 -2.18595400   -3.56797300   -3.15437500
 H                  5.35670600   -4.65578700   -0.84336500
 H                  6.39478800   -4.69407900    1.40740800
 H                  7.74437700   -2.76268700    2.18049000
 H                  8.07470400   -0.81257600    0.68705000
 H                  7.03938500   -0.78972100   -1.56718800
 H                  5.60053300   -3.64233000   -3.21760700
 H                  5.83914800   -1.88607200   -3.31632800
 H                 -0.49207400    3.41610100    4.26234600
 H                 -2.95742500    3.34711900    4.50426700
 H                 -4.39915000    4.37465900    2.76983600
 H                 -3.36759300    5.53501700    0.83762200
 H                 -0.90499700    5.63455300    0.62330800
 H                  1.48860000    4.46771600    3.15383100
 H                  1.33653100    5.13396300    1.51731600
 H                  4.15988400    4.74947200    2.47347800
 H                  4.82938300    3.55921500    4.54322300
 H                  5.97745300    1.36839600    4.39209600
 H                  6.45826500    0.37805100    2.17736300
 H                  5.79784700    1.57870800    0.11074200
 H                  4.97232200    3.53385300   -0.96724500
 H                  4.79973400    5.03013100   -0.03265000
 H                  4.80346400   -2.65541400    3.24068000
 H                  4.65585100   -2.20475000    5.67519700
 H                  3.29720800   -0.30595000    6.50077500
 H                  2.11435400    1.16065600    4.88184700
 H                  2.28463600    0.72605100    2.46568200
 H                  4.28654000   -2.10159600    0.99193000
 H                  3.83724100   -0.41135000    0.65775300
 H                  1.38769700   -2.72869500    2.95204400
 H                  0.16443600   -2.34643000    5.06160900
 H                 -1.93537400   -3.59621300    5.52508100
 H                 -2.80679300   -5.20044100    3.84768800
 H                 -1.56361400   -5.58545000    1.74084500
 H                  0.80838000   -5.60066300    0.83838900
 H                  1.83788400   -4.19359400    1.12590100
 H                  6.26183200    2.22625300   -2.37310000
 H                  8.38381600    1.19062800   -3.10409800
 H                  8.46294700   -0.14137600   -5.19214600
 H                  6.40695200   -0.42473200   -6.54912200
 H                  4.28712700    0.60542400   -5.81122700
 H                  3.01036600    1.70347600   -4.18262700
 H                  3.85934000    3.21356400   -3.81387400
 H                 -4.62362400    1.80883000    1.23603900
 H                 -6.67783600    2.96343900    0.49619400
 H                 -8.90862600    2.04225500    1.09549200
 H                 -9.05796000   -0.03335400    2.43741600
 H                 -6.99739600   -1.17907300    3.18361000
 H                 -3.68571100    0.31418100    2.93425800
 H                 -4.56940500   -1.07303000    3.56409400
 H                 -7.09889000   -0.70896000   -0.26634800
 H                 -8.26670400    0.97647500   -1.63625900
 H                 -8.66283400    0.56119500   -4.05529000
 H                 -7.91533300   -1.57037600   -5.07197400
 H                 -6.77955400   -3.27223900   -3.68830800
 H                 -6.55623700   -3.04477400   -0.02554800
 H                 -6.34572900   -4.12805700   -1.39313300
 C                 -3.57831100    0.68708900   -2.30535400
 H                 -2.50586600    0.51484600   -2.34698200
 N                 -4.04075800   -0.00731800   -1.06077500
 H                 -4.09522300   -1.04897000   -1.14393700
 H                 -3.38970300    0.16006400   -0.27357500
 C                 -4.25366500    0.06594300   -3.52101000
 H                 -3.98052600   -0.98669700   -3.60389800
 H                 -5.34020200    0.14488000   -3.45558200
 H                 -3.92479000    0.58644800   -4.42030800
 H                 -4.96820100    0.30724100   -0.77159000
 C                 -4.26550700    4.93711400   -2.09800800
 C                 -2.97561800    4.44233700   -2.26336800
 C                 -2.75518100    3.06781500   -2.31625100
 C                 -3.82301900    2.17733900   -2.20097900
 C                 -5.11693700    2.68013200   -2.04589600
 C                 -5.33634400    4.05263000   -1.98834600
 H                 -4.43894100    6.00519800   -2.06461500
 H                 -2.13986200    5.12456400   -2.35604400
 H                 -1.74815300    2.68224100   -2.43043500
 H                 -5.96162900    2.00176200   -1.98586200
 H                 -6.34396700    4.43324600   -1.87600500

