183
2NBnO6_with_RPEA_v1_18_wB97XD_631gd_FREQ.gjf
 O                 -0.64355300   -1.39733100   -1.12887200
 C                 -0.69785100   -2.74311000   -0.72226400
 C                 -0.56894600   -2.23191500    1.60011600
 C                 -2.09166700   -2.34629000    1.76076800
 C                 -2.85740000   -2.21856800    0.44421900
 C                 -2.18835300   -3.09559900   -0.61675100
 O                 -0.07616900   -2.99079200    0.50458200
 C                  0.18334000   -2.73928800    2.84384900
 C                  0.25325300   -0.91382500    4.38334100
 C                 -0.21124200    2.07203700    3.61148200
 N                  1.02719600    1.26849400    3.50555900
 C                  2.23789900    2.09069400    3.49207400
 C                  2.55560400    2.86765100    2.21543700
 N                  2.87320800    2.01920300    1.04565700
 C                  0.12327500    0.28616500   -2.67367300
 C                  0.89988600    1.52819700   -2.21732300
 C                  1.77392000    1.07476400   -1.04908100
 O                  1.13854200   -0.10726800   -0.55832800
 C                  0.51205600   -0.80815500   -1.62805000
 C                  1.81364600    2.14116100    0.03560800
 C                  1.51550900   -1.77715200   -2.25445800
 O                 -2.40951000   -1.30788800    2.65153300
 C                 -3.45934600   -0.27914000    4.46054300
 C                 -3.44077700   -1.51861900    3.60779000
 O                 -4.17802400   -2.64915400    0.68461700
 H                 -6.05502700   -2.63072600   -0.02228000
 C                 -5.19494300   -1.95522400   -0.04149600
 O                 -2.86170800   -2.94690300   -1.84515000
 H                 -3.73049300   -3.87861800   -3.39096600
 H                 -1.71353100   -0.15295100   -4.52269300
 C                 -3.03993100   -4.14531800   -2.58582700
 H                  2.11230900    0.01908700    4.80218500
 H                  0.38569800    2.10193300   -4.77800100
 C                  3.45672500   -4.32036200   -0.48462800
 C                  1.07585200    0.33177700    4.63587200
 O                 -1.22988500    0.61861900   -2.67707500
 C                 -0.78533600    2.55900200    2.30167100
 C                 -2.07291600   -0.18675700   -3.47872600
 O                  1.72507100    2.11273300   -3.19234000
 C                 -1.36345600    1.64620600    1.41633700
 C                 -1.82563400    2.05823400    0.17146400
 C                 -1.73914400    3.40042300   -0.19577600
 C                 -1.21830000    4.32766400    0.70217400
 C                 -0.74907700    3.90714200    1.94469100
 H                 -1.45630800    0.60681500    1.71128900
 C                  1.01496200    2.80321500   -4.20956600
 H                 -2.21420700    1.32974800   -0.53143800
 H                 -2.07478300    3.72576400   -1.17692700
 H                 -1.16530700    5.37689800    0.42868400
 H                 -0.33127900    4.63409400    2.63840600
 C                  2.83931000   -3.66292100   -1.68771500
 O                  2.15943200   -2.49688300   -1.23645400
 C                 -3.15084400   -0.31532200    5.81912800
 C                 -3.10425300    0.86274300    6.56292600
 C                 -3.36037600    2.08460300    5.94732400
 C                 -3.66670100    2.12604800    4.58756400
 C                  4.22746000    2.29527100    0.50851700
 H                 -0.19345100   -3.39650600   -1.43551100
 H                 -0.32418400   -1.17346400    1.44361800
 H                 -2.34559500   -3.32663300    2.19447100
 H                 -2.83014600   -1.17033800    0.12181400
 H                 -2.24627400   -4.14029600   -0.27924100
 H                 -0.50945400   -3.17385300    3.57600700
 H                  0.87987500   -3.51817900    2.52299900
 C                 -3.71475300    0.95004400    3.84913600
 H                  0.09974800   -1.46531900    5.32148800
 H                 -2.94514700   -1.26846600    6.30105300
 H                 -0.04653600    2.92630100    4.29200600
 H                  2.22721500    2.82077000    4.32503100
 H                  3.09077800    1.42581800    3.67648100
 H                  1.75638700    3.56984700    1.96632500
 H                  3.42445200    3.48698600    2.45553700
 H                  0.44663500   -0.02805400   -3.67917800
 H                  0.15107900    2.24389000   -1.85662700
 H                  2.77518700    0.82725900   -1.43070800
 H                  1.85681900    3.12355100   -0.45641200
 H                  0.85709300    2.07868100    0.55008100
 H                  0.99338400   -2.44387100   -2.95693200
 H                  2.24861700   -1.19415800   -2.83719600
 H                 -2.86901100    0.82419600    7.62236900
 H                 -3.32307900    3.00311900    6.52553700
 H                 -3.85834900    3.07551300    4.09674000
 H                 -3.92803700    0.98217900    2.78564200
 C                  4.83913300   -4.38525600   -0.32271400
 H                 -4.39593200   -1.67413700    3.09665100
 H                 -3.21727700   -2.41211000    4.21000000
 C                  5.38918300   -4.92708400    0.83777300
 C                  4.55632300   -5.40654400    1.84401400
 C                  3.17144800   -5.35394600    1.68301700
 C                  2.62415200   -4.81650100    0.52336800
 H                  5.49347100   -3.99005500   -1.09504800
 C                 -5.56095100   -0.62421200    0.57030700
 H                 -4.88500900   -1.82221900   -1.08219600
 C                 -6.42474700   -0.55611800    1.66791300
 C                 -6.77531700    0.67099300    2.21947500
 C                 -6.26248600    1.85019800    1.67937200
 C                 -5.39442300    1.79342100    0.59405900
 C                 -5.05056800    0.56088600    0.04275800
 C                 -1.74759600   -4.68464400   -3.15315800
 H                 -3.53018300   -4.90055700   -1.95652600
 H                 -6.83698800   -1.47350400    2.08253700
 H                 -7.45197800    0.71037000    3.06753400
 H                 -6.53770100    2.80828600    2.11006700
 H                 -4.98143000    2.70290000    0.16816500
 H                 -4.40231000    0.52326300   -0.82769900
 H                  0.73556900    0.80407400    5.57316000
 C                 -1.12626700   -4.03150800   -4.22190800
 C                  0.08836500   -4.48956900   -4.72135400
 C                  0.70080500   -5.60565300   -4.15067000
 C                  0.09264900   -6.25918900   -3.08271900
 C                 -1.12781600   -5.79990000   -2.59050400
 H                 -1.60630300   -3.16493400   -4.67069500
 H                 -2.06026500   -1.22578000   -3.13565900
 C                 -3.47042400    0.36975200   -3.38362800
 H                  0.55217400   -3.98750400   -5.56538900
 H                  1.64329600   -5.97135200   -4.54706300
 H                  0.56162200   -7.13211700   -2.63924800
 H                 -1.60503700   -6.31824300   -1.76216200
 C                 -4.57429800   -0.47114800   -3.52036900
 C                  0.16462600    3.94619100   -3.70035800
 H                  1.79179400    3.17102600   -4.88626900
 C                 -5.86679000    0.04062400   -3.44121700
 C                 -6.06778700    1.39997800   -3.22025700
 C                 -4.96927500    2.24469500   -3.08420200
 C                 -3.67825600    1.73301200   -3.16625300
 H                 -4.42146000   -1.53650600   -3.67164000
 H                  2.11748000   -4.32923800   -2.18120900
 H                  3.60866000   -3.38977600   -2.42554200
 H                 -6.71778200   -0.62671400   -3.53816400
 H                 -7.07484300    1.79716600   -3.14283000
 H                 -5.11698700    3.30581700   -2.90491700
 H                 -2.82123800    2.38633200   -3.04348800
 C                 -1.13676800    4.11539300   -4.16914900
 C                 -1.91898500    5.17985100   -3.72592700
 C                 -1.40380000    6.08129300   -2.79875200
 C                 -0.10543100    5.91277900   -2.32007800
 C                  0.67413800    4.85225100   -2.76793800
 H                 -1.54639600    3.40868300   -4.88715000
 H                  4.44975700    1.52991600   -0.23803300
 H                  4.93250600    2.12855300    1.32874300
 H                 -2.92911400    5.30149800   -4.10581600
 H                 -2.00981900    6.91275100   -2.45179400
 H                  0.30414800    6.61305000   -1.59797600
 H                  1.68370300    4.72351000   -2.38774500
 H                  6.46740100   -4.96899000    0.95570500
 H                  4.98334500   -5.82874900    2.74855000
 H                  2.51898800   -5.73830400    2.46192400
 H                  1.54700300   -4.74757600    0.40439900
 H                 -0.72693400   -0.66814000    3.96618300
 H                 -0.97195400    1.44729400    4.08802900
 C                  4.45593600    3.66264200   -0.10230600
 C                  4.98165500    4.71457500    0.65198800
 C                  5.18168000    5.97142800    0.08780200
 C                  4.86858200    6.19257300   -1.24973800
 C                  4.36499000    5.14717200   -2.01951000
 C                  4.16308100    3.89313800   -1.45038100
 H                  5.25893600    4.54713700    1.69025700
 H                  5.59321000    6.77487300    0.69115200
 H                  5.02909800    7.16978200   -1.69443600
 H                  4.13540000    5.30594200   -3.06933400
 H                  3.76889200    3.08766900   -2.06579400
 C                  4.04184700   -1.55295600    1.78276100
 H                  3.84518400   -2.58573300    1.48378200
 N                  2.76104200   -0.81820300    1.52976000
 H                  2.87194100    0.23396800    1.47951600
 H                  2.32803200   -1.07994400    0.63148700
 C                  4.33880400   -1.53655000    3.27467200
 H                  3.50471800   -1.98440300    3.82119800
 H                  5.23782300   -2.12171400    3.48348000
 H                  4.49298500   -0.51845800    3.65002600
 H                  2.05613500   -1.02288500    2.26536600
 C                  7.05884100    0.09702300   -0.84136500
 C                  7.25628800    0.11716000    0.53401800
 C                  6.29792100   -0.42161800    1.39190700
 C                  5.12766300   -0.98365200    0.88518800
 C                  4.94385500   -1.00921100   -0.50216900
 C                  5.89773100   -0.47409300   -1.35906900
 H                  7.80441400    0.51960700   -1.50726300
 H                  8.15917900    0.55529700    0.94765500
 H                  6.47769600   -0.39167200    2.46156100
 H                  4.03582600   -1.44399400   -0.90818500
 H                  5.73410700   -0.49917900   -2.43254800
 O                  0.96983800   -1.74771700    3.47446400
