183
2NBnO6_with_SPEA_v1_18_wB97XD_631gd_OPT_INVERSION_V2_FREQ.gjf
 O                 -0.88878500   -1.36967000   -1.20895500
 C                 -0.63062900   -2.72620900   -0.94891000
 C                  0.26137900   -2.32611700    1.22308500
 C                 -1.07966400   -2.65559200    1.89107700
 C                 -2.27516500   -2.57663200    0.94140200
 C                 -1.93193900   -3.29986600   -0.36572900
 O                  0.41375500   -2.94514400   -0.04684100
 C                  1.45460700   -2.78961100    2.07656700
 C                  1.93604800   -1.05881700    3.65021800
 C                  0.90081200    1.86837500    3.40312800
 N                  2.09110800    1.25593200    2.77404500
 C                  3.11354300    2.23960400    2.41561600
 C                  2.86723300    3.11254200    1.18578900
 N                  2.80103800    2.37088400   -0.09408100
 C                 -0.92497100    0.49903400   -2.72780700
 C                 -0.18099400    1.81167100   -2.45051800
 C                  1.09537900    1.41504700   -1.71097000
 O                  0.79314600    0.15192800   -1.12390500
 C                 -0.06039900   -0.57912300   -1.99551900
 C                  1.43430600    2.42460100   -0.62888700
 C                  0.79105100   -1.32849300   -3.02334500
 O                 -1.16293500   -1.70808200    2.92454700
 C                 -1.62218500   -0.88057300    5.05070300
 C                 -1.76128000   -2.08412400    4.15842000
 O                 -3.36204300   -3.19947000    1.58763100
 H                 -5.35583000   -3.41462100    1.59519100
 C                 -4.64543800   -2.62551400    1.33289600
 O                 -3.01765900   -3.19592400   -1.25688700
 H                 -4.25444900   -4.17616400   -2.49141100
 H                 -3.22638900   -0.10605500   -3.85350700
 C                 -3.27063400   -4.34922100   -2.04586200
 H                  3.71047300    0.08485500    3.43571300
 H                 -1.65810600    2.47304000   -4.57129200
 C                  3.48439200   -3.69791600   -2.28958600
 C                  2.66366900    0.26852100    3.69985900
 O                 -2.21650900    0.63643000   -2.22183700
 C                 -0.16501700    2.34520500    2.44410600
 C                 -3.18922500   -0.23945700   -2.75747900
 O                  0.16890600    2.55620600   -3.58917200
 C                 -0.92735600    1.41169200    1.73777900
 C                 -1.86243300    1.82324300    0.79534500
 C                 -2.06506800    3.18259100    0.56166700
 C                 -1.34887400    4.12228500    1.29760200
 C                 -0.40828400    3.70291300    2.23621400
 H                 -0.78878600    0.35506100    1.93669000
 C                 -0.93086600    3.21265400   -4.20439200
 H                 -2.40565600    1.08757300    0.21221200
 H                 -2.77694000    3.51089400   -0.19081500
 H                 -1.51513000    5.18185200    1.12961000
 H                  0.15791100    4.44087500    2.80106600
 C                  2.46538200   -2.99534700   -3.14437000
 O                  1.87688700   -1.94877700   -2.38043300
 C                 -0.82134700   -0.89375000    6.19145800
 C                 -0.64961400    0.26692300    6.94435400
 C                 -1.27456300    1.44824700    6.55441400
 C                 -2.07354900    1.46678300    5.41195000
 C                  3.81874100    2.83076200   -1.06517200
 H                 -0.33867000   -3.25637800   -1.85704300
 H                  0.31655600   -1.23755200    1.09812700
 H                 -1.05270800   -3.67914700    2.29802100
 H                 -2.48610400   -1.52138000    0.72884600
 H                 -1.73883100   -4.35697500   -0.13174600
 H                  1.11484100   -3.32560300    2.97189700
 H                  2.05619100   -3.47512700    1.47315300
 C                 -2.24454000    0.30810800    4.66525100
 H                  2.22222700   -1.67777700    4.51243800
 H                 -0.32598600   -1.81388400    6.49331300
 H                  1.20992100    2.69708200    4.06486000
 H                  3.31298100    2.92647900    3.26204100
 H                  4.04527300    1.69452600    2.23696400
 H                  1.97275600    3.72935800    1.30507600
 H                  3.70404800    3.81629100    1.15085300
 H                 -0.95472800    0.28627900   -3.80837200
 H                 -0.82226900    2.39784000   -1.78097100
 H                  1.90499300    1.30075500   -2.44807800
 H                  1.20234400    3.42964900   -1.00938200
 H                  0.75007000    2.22280900    0.19201500
 H                  0.16262100   -2.05731000   -3.55588600
 H                  1.15227500   -0.60495100   -3.77197800
 H                 -0.02738800    0.24745500    7.83421300
 H                 -1.13845000    2.35354700    7.13854100
 H                 -2.55593500    2.38582000    5.09323000
 H                 -2.84288600    0.32621300    3.76039800
 C                  4.84095900   -3.66886600   -2.60723100
 H                 -2.81049800   -2.35007200    3.99651000
 H                 -1.23980600   -2.95632600    4.58044600
 C                  5.77777500   -4.27382400   -1.77110800
 C                  5.36052300   -4.91915000   -0.61119900
 C                  4.00171700   -4.97248600   -0.29942200
 C                  3.06868100   -4.36800000   -1.13520700
 H                  5.17293000   -3.15702000   -3.50716800
 C                 -4.92341500   -1.38525500    2.14885800
 H                 -4.75216200   -2.40861500    0.26611000
 C                 -5.35253600   -1.48452900    3.47609400
 C                 -5.63679400   -0.34281900    4.21704200
 C                 -5.49259000    0.91767100    3.63820800
 C                 -5.05373100    1.02861200    2.32300900
 C                 -4.77420500   -0.11923300    1.58450700
 C                 -2.23444800   -4.56512300   -3.12500400
 H                 -3.34375100   -5.23379400   -1.39833100
 H                 -5.48017500   -2.46697700    3.92542700
 H                 -5.97555300   -0.43425200    5.24441300
 H                 -5.71901000    1.80916700    4.21553400
 H                 -4.92891300    2.00393800    1.86248800
 H                 -4.46772800   -0.02872400    0.54684900
 H                  2.66036000    0.63788100    4.74007600
 C                 -2.19205600   -3.71042800   -4.23054000
 C                 -1.21139800   -3.86064900   -5.20514900
 C                 -0.25602000   -4.86956100   -5.08259700
 C                 -0.28999600   -5.72628400   -3.98570000
 C                 -1.27770700   -5.57373300   -3.01389300
 H                 -2.94184200   -2.92945100   -4.33058100
 H                 -2.93559200   -1.28110100   -2.53933500
 C                 -4.52103400    0.10461400   -2.14316900
 H                 -1.19853500   -3.20076400   -6.06770200
 H                  0.50523700   -4.99369400   -5.84693300
 H                  0.44713400   -6.51767200   -3.88987400
 H                 -1.30489000   -6.24903900   -2.16195900
 C                 -5.49452300   -0.88158400   -1.98760100
 C                 -1.62862600    4.20794000   -3.30343100
 H                 -0.49943600    3.71332000   -5.07591900
 C                 -6.73339800   -0.57133400   -1.43356800
 C                 -7.00827000    0.73057200   -1.02475900
 C                 -6.03948900    1.71903500   -1.17637600
 C                 -4.80272800    1.40931800   -1.73345700
 H                 -5.27387600   -1.90409700   -2.28359100
 H                  1.67663200   -3.69430800   -3.45767700
 H                  2.93051600   -2.58420100   -4.05252900
 H                 -7.48026800   -1.34954800   -1.30941400
 H                 -7.96837600    0.96974700   -0.57887100
 H                 -6.24346000    2.73562200   -0.85234000
 H                 -4.04007000    2.17402400   -1.83523100
 C                 -3.01997100    4.23761200   -3.22765700
 C                 -3.66668100    5.16362700   -2.41146600
 C                 -2.92139300    6.06362100   -1.65493500
 C                 -1.52942100    6.03490100   -1.72204400
 C                 -0.88766700    5.11330500   -2.54118900
 H                 -3.60683700    3.53187600   -3.81078000
 H                  3.80015900    2.13904700   -1.91406400
 H                  4.79403200    2.70484400   -0.58123900
 H                 -4.75167300    5.17764700   -2.36569400
 H                 -3.42264200    6.78549100   -1.01726600
 H                 -0.93988900    6.73393600   -1.13620200
 H                  0.19739300    5.09259000   -2.58604100
 H                  6.83266900   -4.23820400   -2.02504000
 H                  6.08909700   -5.38855000    0.04253900
 H                  3.66986900   -5.49303300    0.59468500
 H                  2.01336700   -4.38714200   -0.88215800
 H                  0.85068000   -0.92418100    3.66954900
 H                  0.44239200    1.11748800    4.05331200
 C                  3.69357000    4.24971000   -1.58277300
 C                  4.38787300    5.29842800   -0.97452600
 C                  4.26164900    6.60445500   -1.43867100
 C                  3.44446200    6.87895300   -2.53084700
 C                  2.76487200    5.83953300   -3.16041000
 C                  2.88980900    4.53519100   -2.69106100
 H                  5.05413700    5.09243300   -0.13983100
 H                  4.81037500    7.40588700   -0.95360100
 H                  3.34817600    7.89540600   -2.89963600
 H                  2.13898500    6.04319800   -4.02450500
 H                  2.34958900    3.73542300   -3.19309400
 C                  4.51208100   -1.09420200   -0.12423100
 H                  4.33953900   -2.16840300   -0.21995000
 N                  3.15874900   -0.50237400    0.11172800
 H                  2.48619100   -0.80051800   -0.61131200
 H                  2.77898300   -0.80940300    1.02954000
 C                  5.06786700   -0.57156000   -1.44101200
 H                  4.35316900   -0.76268300   -2.24746000
 H                  5.27089800    0.50156400   -1.40522200
 H                  6.00045300   -1.08926800   -1.67532500
 H                  3.13790300    0.55335300    0.11227400
 C                  6.85000400   -0.41988800    3.43539700
 C                  6.77330900    0.57472300    2.46451700
 C                  6.04573400    0.35608500    1.29840100
 C                  5.38092600   -0.85374100    1.09197400
 C                  5.47630400   -1.85016700    2.06474100
 C                  6.20481400   -1.63662500    3.23033800
 H                  7.41653700   -0.24982600    4.34551100
 H                  7.28244900    1.52190800    2.61312300
 H                  5.99928600    1.14175000    0.54968600
 H                  4.96382700   -2.79537000    1.90948200
 H                  6.26909000   -2.42019400    3.97877000
 O                  2.31678500   -1.73841600    2.45641400
