168
2ONPy2Me_v2_with_SPEA_1_wB97XD_631gd_step_479.gjf
 O                  0.93409300   -0.44633600   -0.05103600
 C                  1.87433700   -0.68303100   -1.08538900
 C                  0.44699200    0.22403600   -2.82173500
 C                  1.38227200    1.41321200   -3.07606600
 C                  2.17494500    1.73989400   -1.80133200
 C                  2.85681900    0.48299800   -1.24719000
 O                  1.20288600   -0.87221500   -2.30216700
 C                 -0.19780400   -0.31307400   -4.09415400
 C                 -2.48456000   -0.99194000   -3.85036900
 C                 -2.82515000   -0.96718600   -0.93719100
 N                 -2.96907500   -2.19710700   -1.70289400
 C                 -3.76513700   -3.24244000   -1.04801300
 C                 -3.31060200   -3.53010600    0.37647700
 C                 -0.04697400   -0.54889000    2.15103000
 C                 -1.00573000   -1.68564000    2.50642400
 C                 -0.32627800   -2.94948700    1.99869400
 O                  0.48475700   -2.51528900    0.90383900
 C                  0.96511900   -1.18189500    1.13874500
 C                 -1.26199800   -4.06881800    1.55953500
 C                  2.36081100   -1.27125400    1.75962200
 O                  0.71061800    2.53118300   -3.62368200
 C                 -1.70906400    2.79250300   -3.41263400
 C                 -0.33891100    3.11312200   -2.86202000
 O                  3.21784000    2.65786800   -2.04025500
 H                  2.20711300    4.24214300   -2.91290200
 C                  2.89359100    4.03596000   -2.08461000
 O                  3.45566000    0.74650200   -0.00373600
 H                  5.02531900    1.52477000    0.95783400
 H                  0.40963800    1.83731800    2.75644500
 C                  4.84096900    1.09182900   -0.03034300
 H                 -3.17897100   -3.00098200   -3.60413400
 H                 -2.23569100   -0.03054800    4.12964100
 C                  2.91901300   -0.09977900    4.42314200
 C                 -3.32475000   -2.02718400   -3.11840500
 O                 -0.77618300    0.54386600    1.66327100
 C                 -4.07899000   -0.16701300   -0.63244700
 C                 -0.10974900    1.79600100    1.78671400
 O                 -1.24028100   -1.83769700    3.88478100
 N                 -5.22510100   -0.54249800   -1.20263200
 C                 -6.31918400    0.18658400   -0.95561100
 C                 -6.32303700    1.31785700   -0.14957600
 C                 -5.12158000    1.70481400    0.44328300
 C                 -3.98477100    0.94802600    0.20502000
 C                 -2.35248800   -1.09640900    4.36863500
 H                 -7.23410900   -0.15541700   -1.43370300
 H                 -7.23951900    1.87601600    0.00910100
 H                 -5.06758100    2.58168600    1.08078400
 H                 -3.03247000    1.20310600    0.66064600
 C                  3.16842800   -1.52226500    3.97761900
 O                  2.23891300   -1.94825300    2.99089600
 C                 -1.92127300    2.70939200   -4.79053700
 C                 -3.18845900    2.42972200   -5.29102100
 C                 -4.26037800    2.24610500   -4.41879900
 C                 -4.05844400    2.34603000   -3.04595300
 H                  2.41829300   -1.61475300   -0.91559000
 H                 -0.32954300    0.50238100   -2.09747600
 H                  2.10540800    1.12789800   -3.84879100
 H                  1.49624800    2.12023000   -1.02679200
 H                  3.60783600    0.14629300   -1.97566300
 H                 -0.68180200    0.50015200   -4.63996400
 H                  0.59030400   -0.73742200   -4.72664900
 C                 -2.78546700    2.61321400   -2.54517800
 H                 -2.81819300   -0.95546500   -4.89622400
 H                 -1.08371600    2.85288500   -5.46727700
 H                 -2.12592700   -0.31434000   -1.46654500
 H                 -4.83452100   -2.99369000   -1.02683000
 H                 -3.64336100   -4.15596600   -1.64403300
 H                 -3.54860200   -2.69428400    1.04619600
 H                 -3.85626300   -4.40695000    0.75055100
 H                  0.49789100   -0.25938200    3.05302500
 H                 -1.94788600   -1.51001800    1.97349500
 H                  0.31576900   -3.33057500    2.79978300
 H                 -0.68321600   -4.98781600    1.40739200
 H                 -1.97498000   -4.24962000    2.37425400
 H                  3.04976200   -1.81547300    1.10104800
 H                  2.73474500   -0.25274900    1.88824900
 H                 -3.34208000    2.36044200   -6.36373700
 H                 -5.25034000    2.03282900   -4.81014100
 H                 -4.88778700    2.21012000   -2.35940300
 H                 -2.63402500    2.68942500   -1.47086900
 C                  1.75293300    0.20957600    5.13087200
 H                 -0.28908500    2.81272400   -1.81091300
 H                 -0.17047800    4.19707100   -2.88616900
 C                  1.46553100    1.52506600    5.47728200
 C                  2.34391100    2.54920500    5.12197200
 C                  3.50991900    2.24990700    4.42383400
 C                  3.79259200    0.92982900    4.07692400
 H                  1.05831500   -0.58719700    5.38729200
 C                  2.35048100    4.61459400   -0.79264600
 H                  3.84479000    4.52343500   -2.32158200
 C                  1.63842100    5.81603400   -0.83990700
 C                  1.20023600    6.42991300    0.32954400
 C                  1.44633600    5.83504400    1.56408000
 C                  2.13618300    4.62827600    1.61839600
 C                  2.59406200    4.02547500    0.44942800
 C                  5.76142700   -0.08276000   -0.25858900
 H                  5.01077700    1.86934600   -0.77978500
 H                  1.44040300    6.28526200   -1.80156900
 H                  0.65761200    7.36885100    0.27557500
 H                  1.08699600    6.30235400    2.47533700
 H                  2.31383900    4.14271300    2.57386400
 H                  3.11758200    3.07672200    0.50288500
 H                 -4.37894100   -1.74575000   -3.23892900
 C                  5.91661400   -1.06259100    0.72619200
 C                  6.82591000   -2.10009600    0.55980500
 C                  7.59541900   -2.17119100   -0.60205700
 C                  7.43461800   -1.21292100   -1.59821300
 C                  6.51815800   -0.17665900   -1.42621000
 H                  5.33663800   -0.99057800    1.64286000
 H                  0.64969900    1.90671000    1.00438400
 C                 -1.14619000    2.88357800    1.70243000
 H                  6.95161100   -2.84370600    1.34129600
 H                  8.32029800   -2.96994600   -0.72611100
 H                  8.03015300   -1.26365300   -2.50460600
 H                  6.41067600    0.58410300   -2.19576100
 C                 -1.09397100    3.85476800    0.70786600
 C                 -3.65520200   -1.62393600    3.81527700
 H                 -2.31217500   -1.20923000    5.45544100
 C                 -2.07543000    4.83988800    0.62097400
 C                 -3.11628400    4.86728000    1.54199400
 C                 -3.16677300    3.91010200    2.55666000
 C                 -2.19026600    2.92370700    2.63149300
 H                 -0.25931300    3.86718900    0.01384800
 H                  3.03732500   -2.22123100    4.80732100
 H                  4.19678500   -1.63242700    3.60283600
 H                 -2.01487200    5.59038300   -0.16116900
 H                 -3.87909700    5.63753300    1.48208300
 H                 -3.96446800    3.93887400    3.29350200
 H                 -2.23028200    2.17735700    3.42072100
 C                 -4.47816000   -0.82641500    3.02475300
 C                 -5.64279900   -1.34676800    2.46127400
 C                 -5.99319700   -2.67243900    2.69438200
 C                 -5.17792400   -3.47696300    3.49158000
 C                 -4.01327600   -2.95638400    4.04290600
 H                 -4.20094800    0.20686400    2.83521500
 H                 -6.26573100   -0.71524800    1.83526000
 H                 -6.90086900   -3.08024500    2.25995800
 H                 -5.45281400   -4.50999900    3.68282800
 H                 -3.37154700   -3.58306700    4.65722600
 H                  0.55856600    1.75438500    6.02879100
 H                  2.12302600    3.57629700    5.39675300
 H                  4.20219200    3.04130000    4.15196000
 H                  4.70714600    0.69836500    3.53461200
 H                 -2.64005900    0.00885100   -3.43123500
 H                 -2.30847200   -1.20251600   -0.00312000
 C                  0.26008900   -4.41441600   -2.11371200
 H                 -0.04238800   -5.12815800   -1.34203600
 N                 -0.32133400   -3.10539200   -1.71293500
 H                 -0.07943500   -2.88588200   -0.73415600
 H                  0.06759900   -2.34890700   -2.28610200
 C                 -0.33176500   -4.83250200   -3.45319300
 H                  0.15917200   -5.73557000   -3.82352400
 H                 -1.40016700   -5.04215900   -3.33825300
 H                 -0.23023100   -4.04041100   -4.20095900
 H                 -1.36446200   -2.99385900   -1.76609400
 C                  4.45905600   -3.50685500   -1.82089700
 C                  3.79321500   -3.31638400   -3.02811200
 C                  2.45389500   -3.67155000   -3.15093800
 C                  1.76526500   -4.22140100   -2.06844400
 C                  2.44507600   -4.42693000   -0.86593600
 C                  3.78524800   -4.07259500   -0.74156300
 H                  5.49820600   -3.21524900   -1.71904900
 H                  4.31608400   -2.88226500   -3.87472100
 H                  1.94134600   -3.49490100   -4.09180800
 H                  1.91478900   -4.83760200   -0.01113800
 H                  4.30235600   -4.22712800    0.20064900
 O                 -1.91723200   -3.78191400    0.34427700
 O                 -1.11014500   -1.35263300   -3.79386400
