168
2ONPy2Me_v2_with_RPEA_1_wB97XD_631gd.gjf
 O                  0.68970200   -0.03793500   -0.22559200
 C                  1.49688100   -0.52931000   -1.27857700
 C                 -0.44639500   -0.51470500   -2.67010300
 C                  0.03948300    0.70151500   -3.47145400
 C                  1.10569400    1.51456400   -2.71375100
 C                  2.15445000    0.61299400   -2.05503600
 O                  0.67700100   -1.24542900   -2.16740600
 C                 -1.25281200   -1.49238400   -3.50997400
 C                 -2.95313100   -3.07071200   -2.85397200
 C                 -3.59027900   -2.01485300   -0.18476800
 N                 -3.02014000   -3.35130600   -0.37617300
 C                 -3.28793800   -4.25896200    0.73742800
 C                 -2.85716200   -3.67255000    2.08362300
 C                  0.04446600    0.86220200    1.88153300
 C                 -0.99701200   -0.03568800    2.54766100
 C                 -0.18915700   -1.30388200    2.79479900
 O                  0.62916800   -1.44712000    1.63154900
 C                  0.98948900   -0.14486000    1.13050300
 C                 -0.99276400   -2.55773800    3.08175700
 C                  2.46605900    0.06251300    1.45842400
 O                 -1.04119400    1.50499000   -3.90768000
 C                 -3.24570200    1.39799300   -2.86981000
 C                 -1.88701700    2.05626900   -2.90703200
 O                  1.81489000    2.37146400   -3.58447600
 H                  0.24683000    3.43326500   -4.43602000
 C                  1.19315600    3.60848700   -3.91374000
 O                  2.96036800    1.35352000   -1.16969600
 H                  4.48529800    2.63694000   -1.01308200
 H                  1.19371000    2.53032700    0.19213200
 C                  4.19148000    1.83529100   -1.69860200
 H                 -2.63612100   -4.87099600   -1.72999100
 H                 -1.43627200    2.41476800    3.40515300
 C                  4.69235600   -1.09239800    3.14055500
 C                 -3.27891800   -3.98148000   -1.67848300
 O                 -0.56269500    1.80451200    1.04219700
 C                 -5.07983200   -1.97707400    0.07323400
 C                  0.28482000    2.89911100    0.68061000
 O                 -1.46465800    0.37854700    3.80198000
 N                 -5.86090400   -2.56548900   -0.84271500
 C                 -7.18032500   -2.52931400   -0.65592000
 C                 -7.78823600   -1.90938600    0.43265500
 C                 -6.97270200   -1.30642400    1.38200900
 C                 -5.59429500   -1.34349200    1.20285900
 C                 -2.07881400    1.65978100    3.86954300
 H                 -7.78284800   -3.01817700   -1.41829100
 H                 -8.86844100   -1.90743000    0.53052000
 H                 -7.39803000   -0.81148800    2.24910200
 H                 -4.93009700   -0.86284300    1.91634900
 C                  3.90137000    0.18669600    3.31814200
 O                  2.57180600    0.08520900    2.86133100
 C                 -3.86057000    0.96954300   -4.04773200
 C                 -5.13837600    0.41943700   -4.01373500
 C                 -5.82537300    0.31976500   -2.80577600
 C                 -5.22364100    0.76155200   -1.63154500
 H                  2.24866500   -1.23750100   -0.92424100
 H                 -1.06299100   -0.19695100   -1.82127000
 H                  0.50859300    0.34567900   -4.39589300
 H                  0.63031000    2.09746800   -1.91721400
 H                  2.76804500    0.14164100   -2.83499900
 H                 -2.12080400   -0.96857700   -3.92242700
 H                 -0.64048100   -1.87094600   -4.34024200
 C                 -3.93087500    1.27886300   -1.66152600
 H                 -3.02086400   -3.65720000   -3.78125800
 H                 -3.32785200    1.06464100   -4.98947100
 H                 -3.35858800   -1.40789200   -1.06283100
 H                 -4.35125700   -4.53994000    0.80770500
 H                 -2.72740500   -5.18194500    0.54365400
 H                 -3.61191700   -2.97111500    2.46757400
 H                 -2.76228600   -4.48857100    2.81418800
 H                  0.62463700    1.35046000    2.67309000
 H                 -1.82089600   -0.20919900    1.83845800
 H                  0.45123700   -1.11160600    3.66460500
 H                 -0.34314000   -3.35286800    3.47570000
 H                 -1.71897900   -2.29241000    3.86253300
 H                  3.05766000   -0.76038500    1.03336900
 H                  2.81744200    1.00131800    1.01881300
 H                 -5.60449700    0.08006500   -4.93391800
 H                 -6.82387900   -0.10429400   -2.77690200
 H                 -5.75047600    0.68469200   -0.68579500
 H                 -3.44838600    1.58533800   -0.73572400
 C                  4.06054000   -2.33054900    3.26984900
 H                 -1.42611400    2.01887100   -1.91224700
 H                 -2.00666600    3.11574300   -3.15707500
 C                  4.79278300   -3.50911800    3.17058700
 C                  6.16672800   -3.46363700    2.94160000
 C                  6.80187600   -2.23233100    2.81096900
 C                  6.06533400   -1.05275500    2.90364800
 H                  2.98712200   -2.35937700    3.43665000
 C                  0.97683000    4.52386500   -2.72701100
 H                  1.88714100    4.07224900   -4.62147500
 C                 -0.22102900    5.22166000   -2.57972300
 C                 -0.41486200    6.09032300   -1.50623100
 C                  0.59371000    6.26771700   -0.56571800
 C                  1.79882000    5.58134800   -0.70926400
 C                  1.98698600    4.71702400   -1.78067000
 C                  5.28646600    0.79699400   -1.75940800
 H                  4.02225400    2.27550100   -2.68572500
 H                 -1.00637200    5.10273300   -3.32238200
 H                 -1.35396800    6.62671500   -1.40854000
 H                  0.44579000    6.93245100    0.27942100
 H                  2.58718700    5.71697100    0.02464800
 H                  2.92800300    4.18977000   -1.89392400
 H                 -4.32113200   -4.30785600   -1.78332400
 C                  5.90365300    0.49512400   -2.97261800
 C                  6.98887100   -0.37865100   -3.02160200
 C                  7.46259900   -0.96196900   -1.85102100
 C                  6.83431200   -0.68663000   -0.63627500
 C                  5.75114400    0.18211500   -0.59285400
 H                  5.54667300    0.96510700   -3.88584900
 H                 -0.28616700    3.46560800   -0.06122400
 C                  0.63538100    3.77672300    1.85593100
 H                  7.46836100   -0.59277200   -3.97181100
 H                  8.31491500   -1.63393400   -1.88215900
 H                  7.18881100   -1.15152800    0.27819800
 H                  5.26991400    0.39535000    0.35912200
 C                 -0.32102700    4.63676000    2.40157500
 C                 -3.46791200    1.71658100    3.27607700
 H                 -2.12746800    1.87632800    4.93989300
 C                 -0.01421700    5.43097600    3.50038000
 C                  1.25859200    5.37528500    4.06705400
 C                  2.21944500    4.52504700    3.52939200
 C                  1.90579200    3.73149300    2.42854300
 H                 -1.30951500    4.68973000    1.95113500
 H                  4.41453600    1.02552000    2.82048000
 H                  3.82158700    0.43352600    4.38134200
 H                 -0.76362800    6.10040600    3.91176700
 H                  1.50016300    5.99727400    4.92343500
 H                  3.21217800    4.47940300    3.96689900
 H                  2.65890100    3.07169500    2.00362000
 C                 -3.69136500    2.29642500    2.02628300
 C                 -4.98503900    2.42307100    1.52440100
 C                 -6.06841600    1.96073500    2.26523900
 C                 -5.85398400    1.36101800    3.50525800
 C                 -4.56094900    1.23615600    4.00326400
 H                 -2.83943500    2.65549200    1.45527900
 H                 -5.14794800    2.89217500    0.55857800
 H                 -7.07747700    2.07325700    1.87969800
 H                 -6.69661600    1.00937000    4.09412000
 H                 -4.39670200    0.78773300    4.98006600
 H                  4.29298100   -4.46792400    3.27421000
 H                  6.73764400   -4.38373200    2.86727700
 H                  7.87311200   -2.18705800    2.63727500
 H                  6.56738800   -0.09356800    2.79566600
 H                 -3.68469200   -2.25370200   -2.92613300
 H                 -3.06226000   -1.54911900    0.65102500
 C                  0.63906000   -4.47420100   -0.43502700
 H                  0.20469100   -5.10377800   -1.21803800
 N                 -0.18742600   -3.23386200   -0.40493900
 H                  0.08284100   -2.62996800    0.38735600
 H                 -0.03434400   -2.68482100   -1.26125600
 C                  0.54947000   -5.19321200    0.90359300
 H                 -0.47764300   -5.50651600    1.10785300
 H                  1.19010900   -6.07848100    0.89377800
 H                  0.86632900   -4.54307700    1.72420900
 H                 -1.23066800   -3.35911900   -0.33157100
 C                  4.45306000   -2.97134100   -1.75150800
 C                  4.19526800   -3.08197700   -0.38717000
 C                  2.98741000   -3.61639900    0.05348100
 C                  2.03081800   -4.05166600   -0.86560600
 C                  2.30622100   -3.95372000   -2.23027300
 C                  3.50914400   -3.41538400   -2.67286900
 H                  5.38572600   -2.53735400   -2.09414200
 H                  4.92757700   -2.73937400    0.33808400
 H                  2.79522600   -3.66770100    1.11990500
 H                  1.55904400   -4.27374300   -2.95265000
 H                  3.70698300   -3.33520000   -3.73719700
 O                 -1.62950400   -2.99937800    1.90821300
 O                 -1.64742800   -2.55894800   -2.67258400
