197
3NBn_with_SPEA_v1_17_m052x_631gd.gjf
N         -2.75250       -1.06000        1.68690
O          1.21790        1.29980        0.61000
C          1.45580       -0.08820        0.63160
C         -0.50690       -1.47510        0.73210
C          0.19480       -2.64330        0.04140
C          1.45110       -2.15790       -0.72040
C          1.50620       -0.63210       -0.79270
O          0.48100       -0.72880        1.43170
C         -1.57250       -1.93040        1.71670
C         -2.45280        0.26340        2.24220
C         -4.33240        2.70810       -0.00950
N         -3.24250        1.76770        0.36820
C         -1.92880        2.39090        0.10890
C         -1.63810        3.65740        0.92840
N         -0.90760        4.63880        0.12540
C          3.28740        2.51210        0.89550
C          2.87260        3.78060        0.12610
C          1.53570        4.20320        0.74590
O          1.24990        3.25000        1.78020
C          1.96110        2.06950        1.56060
C          0.42150        4.23500       -0.29970
C          2.09290        1.41050        2.93370
O         -0.75020       -3.23420       -0.84170
C         -1.15240       -5.40200        0.18190
C         -0.60310       -4.64770       -1.00340
O          2.65730       -2.50870       -0.05600
H          2.32700       -4.54720        0.16540
C          3.07720       -3.85150       -0.23080
O          0.44500       -0.14760       -1.61900
H          1.68920        0.32200       -3.19990
H          5.64730        1.42610        0.88400
C          0.89620        0.78840       -2.60550
H         -3.33110        2.21080        2.43670
H          5.20300        5.83310       -0.79560
C          2.39020       -1.32100        4.21860
C         -3.42140        1.34300        1.76840
O          3.79410        1.56290       -0.01580
C         -5.43930        2.05830       -0.80560
C         -3.69960       -2.08350        3.81900
C          4.90530        0.77990        0.40310
O          3.76160        4.87240        0.21380
C         -5.33980        1.99540       -2.19900
C         -6.35180        1.42270       -2.96400
C         -7.48690        0.90810       -2.33920
C         -7.60080        0.97430       -0.95260
C         -6.58440        1.54920       -0.19270
H         -4.47360        2.43060       -2.68870
C          4.90500        4.79680       -0.62670
H         -6.26450        1.39620       -4.04360
H         -8.28480        0.47570       -2.92930
H         -8.48760        0.59170       -0.46410
H         -6.69370        1.62400        0.88360
C         -3.16220       -3.32240        4.17670
C         -2.99500       -3.66680        5.51430
C          3.34950       -0.15630        4.17750
O          3.24530        0.59080        2.96700
C         -3.35690       -2.77050        6.51740
C         -3.89730       -1.53460        6.17420
C         -4.07290       -1.19990        4.83430
H         -2.88520       -4.02870        3.40220
H         -2.58840       -4.63710        5.77370
H         -3.23180       -3.03890        7.55870
C         -3.88880       -1.71670        2.35870
H         -4.19560       -0.83880        6.94810
H         -4.52300       -0.24730        4.57410
C         -0.32010       -6.07660        1.07170
C         -0.85010       -6.72920        2.18450
C         -2.22240       -6.71330        2.40900
C         -3.06550       -6.04780        1.51760
C         -0.94950        5.97060        0.71680
H          2.40880       -0.30080        1.10320
H         -0.98120       -0.85300       -0.02680
H          0.49740       -3.35480        0.81630
H          1.42950       -2.56570       -1.73610
H          2.46730       -0.33490       -1.21530
H         -1.89990       -2.93330        1.43320
H         -1.11380       -1.99400        2.71050
C         -2.53120       -5.39420        0.41390
H         -1.43360        0.52980        1.96170
H          0.74870       -6.10750        0.88840
H         -3.89990        3.51060       -0.60930
H         -1.14050        1.65000        0.24420
H         -1.92830        2.67180       -0.94720
H         -1.11860        3.40880        1.85990
H         -2.58400        4.13450        1.19570
H          4.02300        2.76510        1.66180
H          2.74620        3.49520       -0.92710
H          1.65650        5.17300        1.22790
H          0.74500        4.92100       -1.09240
H          0.35470        3.23300       -0.72750
H          2.19230        2.21780        3.66570
H          1.18790        0.83560        3.14810
H         -0.19330       -7.25480        2.86610
H         -2.63870       -7.22560        3.26710
H         -4.13540       -6.04600        1.68440
H         -3.18230       -4.87740       -0.28420
C          2.58800       -2.40480        3.36180
H         -1.16810       -4.89410       -1.90300
H          0.44690       -4.89810       -1.18300
C          1.71090       -3.48250        3.37920
C          0.61720       -3.48150        4.24350
C          0.40510       -2.39810        5.09110
C          1.29410       -1.32560        5.07920
H          3.42440       -2.39420        2.67190
C          3.39150       -4.20050       -1.66750
H          3.97110       -3.94530        0.38850
C          3.07210       -5.45950       -2.17320
C          3.39010       -5.79600       -3.48680
C          4.02060       -4.86550       -4.30630
C          4.33900       -3.60470       -3.80560
C          4.03140       -3.27190       -2.49100
C         -0.28250        1.13120       -3.47640
H          1.30540        1.67370       -2.11430
H          2.58110       -6.18710       -1.53450
H          3.14340       -6.77890       -3.86750
H          4.26630       -5.12210       -5.32890
H          4.83680       -2.87820       -4.43520
H          4.29080       -2.29470       -2.10000
H         -4.44950        0.98390        1.85870
C         -0.88080        2.39080       -3.44580
C         -2.02490        2.64660       -4.20050
C         -2.58320        1.64010       -4.98680
C         -1.98160        0.38260       -5.03520
C         -0.83260        0.13740       -4.28940
H         -0.45600        3.17650       -2.83300
H          4.59180        0.02280        1.12520
C          5.52030        0.12120       -0.80580
H         -2.47400        3.63210       -4.17750
H         -3.47150        1.83960       -5.57360
H         -2.40590       -0.40530       -5.64460
H         -0.36510       -0.83950       -4.32260
C          6.45850       -0.89620       -0.61750
C          6.05700        4.02840       -0.02070
H          4.63280        4.36080       -1.59510
C          7.10610       -1.47350       -1.70370
C          6.81430       -1.04770       -2.99850
C          5.86510       -0.04930       -3.19490
C          5.22150        0.53370       -2.10370
H          6.69210       -1.22670        0.38890
H          4.38050       -0.50820        4.20740
H          3.18490        0.50690        5.03430
H          7.83570       -2.25680       -1.54260
H          7.32070       -1.49480       -3.84460
H          5.63150        0.28610       -4.19820
H          4.49670        1.32420       -2.24820
C          6.33590        4.14010        1.34320
H         -4.76130       -1.06560        2.26820
H         -4.10880       -2.62460        1.78930
C          7.41780        3.46320        1.89600
C          8.23750        2.67490        1.08830
C          7.97100        2.57060       -0.27320
C          6.88380        3.24610       -0.82320
H          5.69480        4.75480        1.96360
H         -0.27010        6.60660        0.13970
H         -0.59330        5.98310        1.75820
H          7.62640        3.55370        2.95470
H          9.08000        2.14930        1.51930
H          8.59390        1.95120       -0.90620
H          6.67170        3.14900       -1.88160
H          1.88140       -4.32950        2.72470
H         -0.07340       -4.31680        4.24560
H         -0.45220       -2.38610        5.75220
H          1.13570       -0.48500        5.74610
H         -2.46160        0.24500        3.34070
H         -4.74980        3.18310        0.88460
C         -2.34620        6.55420        0.66250
C         -3.09920        6.45460       -0.50990
C         -4.37840        6.99470       -0.57550
C         -4.92020        7.64580        0.53180
C         -4.17570        7.75030        1.70140
C         -2.89600        7.20200        1.76580
H         -2.66880        5.94150       -1.36180
H         -4.95250        6.91600       -1.49050
H         -5.91500        8.06940        0.48020
H         -4.59020        8.25300        2.56600
H         -2.32060        7.27800        2.68170
C         -3.50940       -1.54290       -1.67530
H         -2.84910       -2.14010       -1.04840
N         -2.87650       -0.16730       -1.69420
H         -3.06800        0.39180       -0.80190
H         -1.86090       -0.22900       -1.83790
C         -4.87960       -1.43860       -1.03020
H         -4.76940       -1.05790       -0.01690
H         -5.54520       -0.77300       -1.57720
H         -5.33440       -2.42950       -0.99220
H         -3.25200        0.37700       -2.47570
C         -3.41870       -3.10900       -5.69460
C         -4.56000       -2.45900       -5.23310
C         -4.60470       -1.95560       -3.93500
C         -3.50600       -2.09900       -3.08570
C         -2.36000       -2.74260       -3.55860
C         -2.31590       -3.24760       -4.85460
H         -3.39050       -3.50890       -6.70010
H         -5.42130       -2.35240       -5.88020
H         -5.50450       -1.46250       -3.58980
H         -1.50190       -2.82950       -2.90250
H         -1.42460       -3.75180       -5.20690
