197
3NBn_2_v2_with_RPEA_33_m052x_631gd.gjf
N         -3.98770       -0.67480        0.16900
O          0.77650       -0.98800        0.15470
C          0.08990       -2.03950        0.79000
C         -1.85250       -1.78490       -0.58580
C         -1.38150       -2.94190       -1.49340
C          0.11430       -3.24410       -1.38310
C          0.51030       -3.31600        0.08090
O         -1.30090       -1.86560        0.73660
C         -3.35900       -1.88220       -0.38600
C         -4.24050        0.28750       -0.92080
C         -3.30250        3.00630       -1.94580
N         -3.41610        2.59560       -0.52710
C         -3.57490        3.74940        0.35790
C         -2.29780        4.53520        0.63140
N         -1.29970        3.74620        1.38410
C          2.39300        0.79300        0.11920
C          2.09110        2.29540        0.25780
C          0.77850        2.37510        1.04780
O          0.16170        1.09830        0.86460
C          1.20260        0.12650        0.86610
C         -0.13500        3.46610        0.53160
C          1.63370       -0.16970        2.30160
O         -1.62930       -2.61030       -2.85030
C         -3.70150       -1.85420       -3.84180
C         -2.84150       -3.03780       -3.46040
O          0.41130       -4.50030       -1.96350
H         -0.04790       -3.99220       -3.92680
C          0.74710       -4.46810       -3.35210
O          1.90590       -3.43940        0.25000
H          2.16750       -5.47510       -0.06320
H          2.88140       -1.54680       -0.84110
C          2.35210       -4.71700        0.70160
H         -4.82240        1.62820        0.66470
H          4.64670        2.36980       -0.21820
C          1.56680       -1.85000        4.72990
C         -4.56400        1.69100       -0.39430
O          2.43600        0.45360       -1.24050
C         -1.89000        3.20320       -2.44600
C         -6.31340       -1.68950       -0.00230
C          3.17590       -0.74610       -1.51860
O          3.07010        3.02390        0.96950
C         -1.41490        4.46700       -2.79540
C         -0.08950        4.64520       -3.18620
C          0.77060        3.55330       -3.25180
C          0.29360        2.27780       -2.94900
C         -1.02830        2.10830       -2.55090
H         -2.08180        5.32110       -2.73920
C          4.23330        3.29860        0.18870
H          0.27720        5.63460       -3.42750
H          1.80800        3.69820       -3.52780
H          0.96000        1.42610       -2.97510
H         -1.38310        1.12070       -2.28180
C         -6.35280       -3.07250       -0.19710
C         -7.32490       -3.65200       -1.00750
C          0.85590       -0.53690        4.50570
O          0.49450       -0.30360        3.14100
C         -8.27980       -2.85290       -1.63130
C         -8.26450       -1.47560       -1.42880
C         -7.28900       -0.90270       -0.61860
H         -5.63000       -3.70430        0.30670
H         -7.34670       -4.72640       -1.13970
H         -9.04210       -3.30290       -2.25450
C         -5.24460       -1.05300        0.86550
H         -9.01680       -0.84990       -1.89250
H         -7.29070        0.16980       -0.45300
C         -5.09330       -1.94070       -3.81830
C         -5.87210       -0.85320       -4.20790
C         -5.26360        0.33040       -4.61660
C         -3.87220        0.42140       -4.63910
C         -0.93420        4.41120        2.65540
H          0.34460       -2.10600        1.84280
H         -1.54150       -0.84450       -1.04750
H         -1.91780       -3.86090       -1.22270
H          0.68130       -2.44510       -1.86920
H         -0.01290       -4.15650        0.55170
H         -3.84750       -2.15580       -1.32460
H         -3.50630       -2.70080        0.32220
C         -3.09500       -0.66610       -4.25250
H         -5.02640       -0.08350       -1.58590
H         -5.57580       -2.85190       -3.48090
H         -3.88810        3.92160       -2.11730
H         -4.34210        4.44320       -0.02570
H         -3.93570        3.38660        1.32610
H         -1.86290        4.91420       -0.29430
H         -2.58420        5.41310        1.21210
H          3.34280        0.54460        0.60910
H          1.95780        2.70220       -0.74920
H          1.03010        2.51610        2.10570
H          0.46100        4.37150        0.35960
H         -0.50500        3.12710       -0.43200
H          2.24170       -1.08040        2.30230
H          2.25900        0.65660        2.66310
H         -6.95120       -0.93210       -4.17960
H         -5.86830        1.17450       -4.92390
H         -3.38940        1.33660       -4.96110
H         -2.01450       -0.59870       -4.26250
C          0.91220       -3.05510        4.46040
H         -2.56560       -3.59760       -4.35850
H         -3.39080       -3.71970       -2.80440
C          1.54450       -4.27020        4.70130
C          2.83630       -4.29230        5.22530
C          3.49310       -3.09710        5.49920
C          2.86250       -1.88100        5.24310
H         -0.10630       -3.03570        4.08700
C          2.06620       -3.78650       -3.63160
H          0.80230       -5.51880       -3.64030
C          2.19880       -2.89720       -4.69560
C          3.43510       -2.31850       -4.98360
C          4.54360       -2.61620       -4.19760
C          4.41340       -3.49450       -3.12180
C          3.18210       -4.07380       -2.84390
C          3.81760       -4.59200        1.01770
H          1.79610       -4.99090        1.60670
H          1.33370       -2.65820       -5.30430
H          3.52750       -1.63260       -5.81630
H          5.50100       -2.15670       -4.40730
H          5.26790       -3.71590       -2.49430
H          3.07270       -4.75140       -2.00900
H         -5.45060        2.09780       -0.90520
C          4.78740       -5.27100        0.28410
C          6.13960       -5.10450        0.57870
C          6.52760       -4.25820        1.61270
C          5.56100       -3.57970        2.35440
C          4.21370       -3.74520        2.05510
H          4.48820       -5.93540       -0.51850
H          2.88560       -1.02800       -2.53120
C          4.66320       -0.50650       -1.44580
H          6.88600       -5.63780        0.00400
H          7.57760       -4.13400        1.84620
H          5.85640       -2.92580        3.16570
H          3.45850       -3.22500        2.63280
C          5.25200        0.46970       -2.25350
C          3.97280        4.28330       -0.93100
H          4.95470        3.70980        0.89550
C          6.62490        0.68590       -2.20930
C          7.42390       -0.07390       -1.35380
C          6.84360       -1.04850       -0.54950
C          5.46650       -1.26210       -0.59440
H          4.62180        1.05250       -2.91650
H          1.47670        0.29330        4.86040
H         -0.08550       -0.52900        5.05540
H          7.07800        1.43660       -2.84610
H          8.49320        0.09250       -1.32230
H          7.45560       -1.64640        0.11420
H          5.01540       -2.03190        0.02220
C          3.09710        5.35240       -0.74180
H         -4.96890       -1.73230        1.67330
H         -5.65550       -0.15590        1.33310
C          2.88310        6.27800       -1.75750
C          3.54970        6.14860       -2.97410
C          4.42990        5.08710       -3.16740
C          4.63570        4.15660       -2.15090
H          2.58350        5.45880        0.20440
H         -0.33090        3.71160        3.23770
H         -1.86520        4.56560        3.20650
H          2.20200        7.10410       -1.59330
H          3.38980        6.87240       -3.76330
H          4.95510        4.98260       -4.10840
H          5.32140        3.33110       -2.29980
H          1.02690       -5.19950        4.49910
H          3.32710       -5.23720        5.41790
H          4.49510       -3.11040        5.90830
H          3.37500       -0.95010        5.45870
H         -3.33240        0.34370       -1.51850
H         -3.76570        2.22460       -2.55100
C         -0.20120        5.73610        2.56570
C          1.19270        5.77610        2.46670
C          1.86490        6.99300        2.39450
C          1.15340        8.18910        2.42810
C         -0.23250        8.16250        2.54790
C         -0.90080        6.94400        2.62130
H          1.76240        4.85250        2.44550
H          2.94500        7.00570        2.31720
H          1.67720        9.13480        2.37680
H         -0.79190        9.08790        2.59740
H         -1.97760        6.93580        2.74970
C         -3.14360        0.93680        3.28470
H         -4.01560        1.53310        3.00930
N         -2.29570        0.86530        2.05870
H         -1.37670        0.44160        2.23800
H         -2.77860        0.29580        1.31720
C         -2.38290        1.63890        4.40400
H         -2.15410        2.66900        4.14090
H         -2.98680        1.63380        5.31100
H         -1.45070        1.11180        4.60920
H         -2.07670        1.81420        1.68410
C         -4.57100       -2.92430        4.55100
C         -3.32480       -2.82030        3.94060
C         -2.84250       -1.57980        3.52760
C         -3.61860       -0.43590        3.70740
C         -4.86440       -0.54370        4.32690
C         -5.33950       -1.77990        4.74950
H         -4.94220       -3.88940        4.86990
H         -2.72530       -3.70790        3.77950
H         -1.88100       -1.52190        3.03560
H         -5.47200        0.34400        4.46780
H         -6.31020       -1.85150        5.22260
