197
3NBn_2_v2_with_SPEA_33_m052x_631gd_INVERSION.gjf
 N                 -3.81796700   -1.33492600    0.32950200
 O                  0.91994400   -0.92776800    0.44976500
 C                  0.37964700   -1.90845200    1.30611600
 C                 -1.50147900   -2.24977500   -0.13673500
 C                 -0.83658400   -3.49660800   -0.76040300
 C                  0.67273300   -3.56674400   -0.52735100
 C                  1.03242100   -3.22248400    0.90850000
 O                 -1.02167800   -1.98250600    1.19087200
 C                 -2.99548400   -2.51038700    0.01183000
 C                 -4.06145400   -0.54546200   -0.89369100
 C                 -3.56754700    2.09999900   -2.30615700
 N                 -3.63899800    1.90001100   -0.84153900
 C                 -4.00046500    3.13214000   -0.13861700
 C                 -2.85794000    4.10873800    0.12989300
 N                 -1.79968000    3.54485300    0.99536000
 C                  2.24743000    1.00964200   -0.06578000
 C                  1.77476800    2.47669200   -0.05879700
 C                  0.51404800    2.50816100    0.82389000
 O                  0.11829500    1.14081300    0.94442500
 C                  1.28305700    0.32175700    0.93291500
 C                 -0.59927700    3.31191000    0.17847200
 C                  1.95651400    0.31783500    2.30504200
 O                 -1.00036900   -3.47324000   -2.17111700
 C                 -3.04822400   -3.06042200   -3.39506500
 C                 -2.13905800   -4.08803400   -2.75879900
 O                  1.17214300   -4.87083500   -0.76107200
 H                  0.43446900   -5.31985300   -2.65728400
 C                  1.38285600   -5.24599700   -2.12494800
 O                  2.42418200   -3.03378900    1.06120500
 H                  3.02037900   -5.01292900    0.86927300
 H                  2.91588300   -1.36721900   -0.76992300
 C                  3.14772300   -4.16697500    1.54567800
 H                 -4.89312000    0.89146600    0.48406700
 H                  4.26343800    2.75627100   -0.73473000
 C                  2.42360300   -0.83773700    5.01987300
 C                 -4.62774300    0.84696700   -0.57392300
 O                  2.14600600    0.48093700   -1.35973800
 C                 -2.22668100    2.55532500   -2.83206100
 C                 -5.98115000   -2.64649400    0.11032500
 C                  3.01506900   -0.64154000   -1.57775000
 O                  2.71225700    3.37022200    0.50888300
 C                 -2.02643600    3.85850300   -3.28631100
 C                 -0.77002800    4.27372800   -3.72241300
 C                  0.29561900    3.37883500   -3.73003700
 C                  0.09630000    2.06246300   -3.31620400
 C                 -1.15653300    1.65747900   -2.86722400
 H                 -2.85711200    4.55670300   -3.28469100
 C                  3.79303100    3.67600200   -0.37006700
 H                 -0.62041500    5.29393700   -4.05225600
 H                  1.27619800    3.70713600   -4.05131500
 H                  0.92126000    1.36342900   -3.30377400
 H                 -1.29855200    0.64166900   -2.51350800
 C                 -5.83979300   -4.03667900    0.10327800
 C                 -6.65667900   -4.83316600   -0.69413900
 C                  1.58436800    0.35720100    4.63306500
 O                  0.99336000    0.24036300    3.34072800
 C                 -7.63407500   -4.24734100   -1.49490100
 C                 -7.79647300   -2.86463700   -1.48434700
 C                 -6.97654200   -2.07423700   -0.68456000
 H                 -5.09815900   -4.50275400    0.74247500
 H                 -6.54138700   -5.90967100   -0.67884500
 H                 -8.27655300   -4.86599100   -2.10836400
 C                 -5.08552100   -1.77261000    0.96660700
 H                 -8.56784300   -2.40364400   -2.08844000
 H                 -7.11823800   -0.99874600   -0.66673900
 C                 -4.42230100   -3.28151600   -3.48552000
 C                 -5.24492800   -2.34732000   -4.11044600
 C                 -4.69922600   -1.18195300   -4.64277400
 C                 -3.32641300   -0.95644100   -4.55205500
 C                 -1.54291900    4.40465400    2.17151200
 H                  0.58438800   -1.67883900    2.34644200
 H                 -1.27690400   -1.39569000   -0.78101400
 H                 -1.28596200   -4.40534700   -0.33820500
 H                  1.15258300   -2.84316000   -1.19130300
 H                  0.66863400   -4.01188500    1.57714500
 H                 -3.37754600   -2.99012200   -0.89242400
 H                 -3.08912700   -3.22257200    0.83515200
 C                 -2.50410100   -1.89192200   -3.93089400
 H                 -4.70341400   -1.09887300   -1.58653800
 H                 -4.85801900   -4.17656100   -3.05493500
 H                 -4.35198500    2.80367300   -2.62393800
 H                 -4.80208100    3.67246600   -0.66961400
 H                 -4.41108200    2.85281500    0.83586800
 H                 -2.42855700    4.47846600   -0.80300300
 H                 -3.30475200    4.97497400    0.62051400
 H                  3.28051100    0.94353000    0.29485800
 H                  1.53807200    2.76223200   -1.08813200
 H                  0.80152100    2.89181000    1.80857000
 H                 -0.17038000    4.26079700   -0.17283200
 H                 -0.91273900    2.75018000   -0.69836300
 H                  2.65865600   -0.52267300    2.33711300
 H                  2.52588200    1.25149300    2.40711600
 H                 -6.31020700   -2.52914800   -4.16915900
 H                 -5.33742800   -0.45681700   -5.13200700
 H                 -2.89329100   -0.05390100   -4.96686900
 H                 -1.43731200   -1.72106800   -3.85511400
 C                  1.87045700   -2.12029800    4.98562900
 H                 -1.76760700   -4.77243700   -3.52775800
 H                 -2.68561500   -4.68855600   -2.02477000
 C                  2.61954600   -3.22147300    5.38578400
 C                  3.93024500   -3.05062100    5.82952200
 C                  4.48766700   -1.77710800    5.86549000
 C                  3.73827500   -0.67647600    5.45390500
 H                  0.84269700   -2.24915100    4.66384000
 C                  2.32348200   -4.32705300   -2.86544800
 H                  1.81700800   -6.24415400   -2.05791400
 C                  1.93423000   -3.69987200   -4.04634800
 C                  2.83457000   -2.90093300   -4.75134900
 C                  4.12659100   -2.71571100   -4.26951700
 C                  4.51542700   -3.32217100   -3.07487000
 C                  3.61555600   -4.11822900   -2.37766800
 C                  4.59249300   -3.76037700    1.64976600
 H                  2.75626500   -4.44185800    2.53287800
 H                  0.92527100   -3.84092100   -4.41716500
 H                  2.52577500   -2.42653800   -5.67442900
 H                  4.82723800   -2.09333500   -4.81153300
 H                  5.51420700   -3.16743900   -2.68709000
 H                  3.91117500   -4.58528000   -1.44658300
 H                 -5.55778400    1.02479900   -1.13595200
 C                  5.58524900   -4.40578700    0.91604000
 C                  6.91223800   -3.98857700    1.00231000
 C                  7.25332300   -2.92167200    1.82758900
 C                  6.26495000   -2.27488300    2.56906300
 C                  4.94268900   -2.69326200    2.47991300
 H                  5.32456200   -5.24454200    0.28085100
 H                  2.65979400   -1.09913800   -2.50160200
 C                  4.45415100   -0.20981800   -1.71726000
 H                  7.67614800   -4.49880800    0.42967700
 H                  8.28498300   -2.60064700    1.90086300
 H                  6.52521900   -1.45042000    3.22138000
 H                  4.17439500   -2.20136300    3.06405300
 C                  4.81426500    0.71555600   -2.70008200
 C                  3.38202600    4.54483200   -1.53910500
 H                  4.51896300    4.20206900    0.25122500
 C                  6.14249700    1.09857000   -2.85203300
 C                  7.12367800    0.56460300   -2.01597000
 C                  6.76983100   -0.35101300   -1.03091200
 C                  5.43806800   -0.73559300   -0.88107200
 H                  4.04480600    1.13026200   -3.34267000
 H                  2.18726600    1.27130800    4.67962400
 H                  0.74487300    0.46653100    5.32106300
 H                  6.41950200    1.80311600   -3.62726800
 H                  8.15775300    0.86100600   -2.13760300
 H                  7.52352100   -0.77007300   -0.37638600
 H                  5.16316700   -1.45919500   -0.12013500
 C                  2.38679200    5.51059100   -1.39098300
 H                 -4.81302600   -2.30264300    1.87984700
 H                 -5.63595400   -0.88262300    1.27676000
 C                  2.05285800    6.34864800   -2.44965700
 C                  2.71760500    6.23459600   -3.66854200
 C                  3.71172100    5.27126600   -3.82327800
 C                  4.03599000    4.42552100   -2.76491500
 H                  1.87436000    5.60574100   -0.44306500
 H                 -0.83624800    3.88161500    2.81768300
 H                 -2.48411000    4.47088200    2.72438100
 H                  1.27937300    7.09518000   -2.31652600
 H                  2.46661100    6.89269800   -4.49082800
 H                  4.23295600    5.17712100   -4.76767500
 H                  4.80835200    3.67461700   -2.88459300
 H                  2.18008100   -4.21097200    5.36590100
 H                  4.51252700   -3.90708400    6.14318900
 H                  5.50549300   -1.63991500    6.20729200
 H                  4.17448500    0.31587600    5.48188900
 H                 -3.09963400   -0.41477600   -1.38801500
 H                 -3.79853500    1.14214800   -2.77646900
 C                 -1.03173000    5.80765700    1.90403800
 C                  0.33374600    6.05485600    1.73380600
 C                  0.79752000    7.34287300    1.48028000
 C                 -0.09746600    8.40639400    1.40309600
 C                 -1.45639700    8.17737600    1.59368300
 C                 -1.91540700    6.88813000    1.84648800
 H                  1.04668700    5.23963700    1.80424700
 H                  1.85871500    7.51600500    1.35084200
 H                  0.26404200    9.40842900    1.21152800
 H                 -2.15713100    9.00160400    1.55725800
 H                 -2.97277100    6.72510100    2.02416600
 C                 -2.54741000    0.34735100    3.37147200
 H                 -2.00372200   -0.57968500    3.55557400
 N                 -2.38249100    0.60137700    1.90768800
 H                 -2.60675600    1.56814300    1.61970400
 H                 -1.38862500    0.52306700    1.64302700
 C                 -1.91634300    1.48729500    4.16089100
 H                 -0.88326200    1.63385800    3.84493000
 H                 -2.47601600    2.41200800    4.01453900
 H                 -1.93827700    1.24761400    5.22438800
 H                 -2.92240600   -0.10645000    1.33800900
 C                 -6.70481800   -0.23866500    4.33695000
 C                 -5.77014700   -1.22173200    4.64454900
 C                 -4.42739200   -1.03134300    4.32680800
 C                 -4.00668700    0.14350300    3.70753700
 C                 -4.94732200    1.13656200    3.42362000
 C                 -6.29101000    0.94435300    3.72758800
 H                 -7.74900800   -0.38754500    4.57847900
 H                 -6.08479700   -2.13789000    5.12730100
 H                 -3.70177600   -1.80332900    4.55777600
 H                 -4.63043700    2.07293300    2.97597200
 H                 -7.01207500    1.71922400    3.50091000

