197
3NBn_2_v2_with_SPEA_33_wB97XD_631gd_INVERSION.gjf
 N                 -3.82986300   -1.34821000    0.27598100
 O                  0.91546700   -0.91926100    0.42088800
 C                  0.38239600   -1.95915500    1.19992000
 C                 -1.50624000   -2.22184700   -0.24551500
 C                 -0.82800400   -3.41324900   -0.96910900
 C                  0.68730300   -3.49402300   -0.74324200
 C                  1.05103800   -3.23891900    0.71359400
 O                 -1.01203700   -2.03424300    1.08391600
 C                 -2.99651700   -2.50264400   -0.08495900
 C                 -4.09762400   -0.51649000   -0.91183800
 C                 -3.61117100    2.18688600   -2.23425200
 N                 -3.71380500    1.93161500   -0.78305600
 C                 -4.05073000    3.13284600   -0.02404200
 C                 -2.89564600    4.09074200    0.26249600
 N                 -1.82763400    3.50335700    1.09729300
 C                  2.26181700    1.02511500    0.01947900
 C                  1.76206600    2.48240000    0.04021100
 C                  0.49225900    2.47958600    0.90810400
 O                  0.12366100    1.11084100    1.01541500
 C                  1.28253700    0.29101600    0.97801500
 C                 -0.63457700    3.27265400    0.27068600
 C                  1.93023000    0.20559300    2.36300100
 O                 -1.00089500   -3.29817500   -2.36829300
 C                 -3.09210000   -2.85528000   -3.51461000
 C                 -2.12628400   -3.89388700   -2.98644600
 O                  1.19079200   -4.77079700   -1.07196600
 H                  0.55765900   -4.98532400   -3.04205100
 C                  1.47511100   -5.01186300   -2.44585600
 O                  2.43416900   -3.04344400    0.88033600
 H                  3.12444500   -4.97347400    0.55483500
 H                  2.98920100   -1.33719900   -0.76022800
 C                  3.18761900   -4.17241200    1.29883600
 H                 -4.93994700    0.86776700    0.51879200
 H                  4.28593000    2.83579600   -0.56720300
 C                  2.28100400   -1.25024100    4.97655400
 C                 -4.68020000    0.85683800   -0.54428600
 O                  2.21311300    0.52903400   -1.28349800
 C                 -2.23165600    2.55803200   -2.72523700
 C                 -6.00828100   -2.62635100    0.05054600
 C                  3.10412100   -0.56224400   -1.52432100
 O                  2.67046900    3.38859000    0.62122600
 C                 -1.93117000    3.85599200   -3.13700200
 C                 -0.63889400    4.19602200   -3.52980600
 C                  0.36466000    3.23272400   -3.53532500
 C                  0.06675500    1.92243100   -3.16442900
 C                 -1.22182700    1.59279600   -2.76022300
 H                 -2.71237200    4.61319300   -3.13453900
 C                  3.75126400    3.73622800   -0.23238400
 H                 -0.41016000    5.21552600   -3.82360800
 H                  1.37688000    3.50550600   -3.81884300
 H                  0.84630600    1.16988000   -3.14251600
 H                 -1.44002600    0.57589400   -2.44470400
 C                 -5.85322800   -4.00925100   -0.07580400
 C                 -6.67996500   -4.74772600   -0.91718900
 C                  1.48408800   -0.00109000    4.67399600
 O                  0.94877100    0.03132500    3.36060300
 C                 -7.68404300   -4.11031400   -1.64218000
 C                 -7.86230900   -2.73586900   -1.51043100
 C                 -7.03026600   -2.00344600   -0.66932400
 H                 -5.08490100   -4.51915100    0.50026400
 H                 -6.54847900   -5.82254000   -0.99868300
 H                 -8.33466900   -4.68589900   -2.29329000
 C                 -5.08048400   -1.80946800    0.92738700
 H                 -8.65559100   -2.23460300   -2.05706400
 H                 -7.18000200   -0.93117400   -0.56363300
 C                 -4.46456500   -3.10184700   -3.54839800
 C                 -5.33942300   -2.15103200   -4.06794800
 C                 -4.84778600   -0.94204400   -4.55355400
 C                 -3.47698600   -0.69033800   -4.52063900
 C                 -1.55613800    4.31562400    2.30237200
 H                  0.57865900   -1.80352700    2.25795400
 H                 -1.30634900   -1.31864300   -0.83476500
 H                 -1.26755800   -4.35546300   -0.60543000
 H                  1.16189700   -2.71900400   -1.35621100
 H                  0.69469100   -4.07406800    1.33400200
 H                 -3.38774200   -2.96966600   -0.99420800
 H                 -3.07188300   -3.24198800    0.71908600
 C                 -2.60440000   -1.64203800   -4.00280100
 H                 -4.73891800   -1.04970100   -1.62380100
 H                 -4.86258200   -4.03154900   -3.14849400
 H                 -4.33690800    2.96294700   -2.53234300
 H                 -4.85809700    3.70788900   -0.51703500
 H                 -4.45371100    2.81533100    0.94524000
 H                 -2.47767600    4.48960700   -0.66766200
 H                 -3.33330100    4.95006900    0.77924500
 H                  3.28586000    0.97408800    0.41496400
 H                  1.52618600    2.76889700   -0.99167000
 H                  0.76550200    2.86047600    1.90120300
 H                 -0.21074500    4.22346500   -0.08999000
 H                 -0.95156300    2.71010500   -0.60679600
 H                  2.65677100   -0.61826400    2.34991100
 H                  2.47976600    1.14251100    2.54640900
 H                 -6.40561100   -2.35348400   -4.07637300
 H                 -5.52904400   -0.19997900   -4.95932400
 H                 -3.08179600    0.24831800   -4.89973400
 H                 -1.53700700   -1.44534800   -3.96856300
 C                  1.71834400   -2.51130100    4.75981500
 H                 -1.74404700   -4.49547400   -3.82164700
 H                 -2.63505600   -4.58522400   -2.30128000
 C                  2.43232100   -3.66539100    5.06237500
 C                  3.71643500   -3.57173100    5.59700500
 C                  4.28162200   -2.32118900    5.82184000
 C                  3.56903200   -1.16649900    5.50400000
 H                  0.70817800   -2.58746600    4.36455500
 C                  2.50119600   -4.07176600   -3.03459700
 H                  1.85794200   -6.03687900   -2.45940400
 C                  2.23002400   -3.34880800   -4.19416300
 C                  3.20670800   -2.53045700   -4.76279800
 C                  4.45782500   -2.41939300   -4.16487600
 C                  4.72880200   -3.12194500   -2.99065300
 C                  3.75462200   -3.93837500   -2.43261400
 C                  4.60494800   -3.70627700    1.49604800
 H                  2.77548800   -4.55194300    2.24715600
 H                  1.25005700   -3.42873700   -4.65818000
 H                  2.98631400   -1.97927700   -5.67226700
 H                  5.21594500   -1.77254900   -4.59527800
 H                  5.69358800   -3.01856400   -2.50386600
 H                  3.96165600   -4.48128900   -1.51659800
 H                 -5.62441800    1.03090500   -1.09018600
 C                  5.66452200   -4.23708000    0.76340600
 C                  6.96042800   -3.75697900    0.94473100
 C                  7.20536100   -2.74312700    1.86583300
 C                  6.15050900   -2.21016100    2.60575500
 C                  4.86054900   -2.69077100    2.41992000
 H                  5.48276500   -5.03465900    0.04755100
 H                  2.78093300   -0.97858800   -2.48196100
 C                  4.53830100   -0.10165500   -1.59721500
 H                  7.77798500   -4.17828000    0.36793200
 H                  8.21578900   -2.37250700    2.01182100
 H                  6.33351400   -1.42528700    3.33380100
 H                  4.03912800   -2.28425600    3.00119300
 C                  4.92906000    0.81793100   -2.57428500
 C                  3.33100800    4.56470400   -1.42811800
 H                  4.43281000    4.30924800    0.40348600
 C                  6.25002000    1.24388000   -2.65355100
 C                  7.19576300    0.75868500   -1.74916000
 C                  6.81250800   -0.15305000   -0.77174400
 C                  5.48764600   -0.58010500   -0.69619100
 H                  4.18775000    1.19476900   -3.27500900
 H                  2.10006800    0.89391000    4.84717600
 H                  0.61270100    0.06159000    5.33361400
 H                  6.54966600    1.94843600   -3.42475200
 H                  8.22798400    1.08956300   -1.81377000
 H                  7.53967000   -0.53808800   -0.06342200
 H                  5.19212400   -1.30236800    0.06074000
 C                  2.31886500    5.51795500   -1.30945800
 H                 -4.78459700   -2.38749800    1.80683200
 H                 -5.61121000   -0.93116800    1.30655600
 C                  1.96627900    6.31309800   -2.39413300
 C                  2.62378200    6.16524800   -3.61350300
 C                  3.63276400    5.21349600   -3.74046300
 C                  3.97984000    4.41448400   -2.65317800
 H                  1.80386900    5.63668700   -0.36178600
 H                 -0.86137200    3.75331100    2.93294500
 H                 -2.49765200    4.37462800    2.86119300
 H                  1.17956200    7.05381100   -2.28271600
 H                  2.35310700    6.78916700   -4.46010600
 H                  4.14829400    5.09042000   -4.68830100
 H                  4.76540800    3.67028500   -2.75267200
 H                  1.98261200   -4.63975500    4.89553500
 H                  4.27348200   -4.47219500    5.83483600
 H                  5.28187600   -2.24220200    6.23585300
 H                  4.01869100   -0.19106600    5.67359100
 H                 -3.14250900   -0.35955100   -1.41518700
 H                 -3.91487200    1.27205300   -2.75204400
 C                 -1.01661700    5.71658100    2.08120600
 C                  0.35142100    5.94234400    1.89774700
 C                  0.83775100    7.22668800    1.67115100
 C                 -0.03591000    8.30982500    1.63087300
 C                 -1.39678200    8.10216100    1.83186800
 C                 -1.87854900    6.81612300    2.05857600
 H                  1.05419500    5.11295100    1.92928900
 H                  1.90341400    7.38079300    1.52932800
 H                  0.34497900    9.31158400    1.45816000
 H                 -2.08477700    8.94203900    1.82219200
 H                 -2.94109200    6.67019700    2.23996800
 C                 -2.51631900    0.24437000    3.31869500
 H                 -1.96341100   -0.68861800    3.45794900
 N                 -2.37324500    0.55283900    1.86671800
 H                 -2.60621500    1.53185600    1.62087600
 H                 -1.37921300    0.49801500    1.58501300
 C                 -1.87451200    1.34885100    4.14862500
 H                 -0.83917000    1.50113900    3.83271500
 H                 -2.42758300    2.28705400    4.04694700
 H                 -1.88751800    1.06739100    5.20513500
 H                 -2.91958300   -0.13751600    1.28295100
 C                 -6.67299800   -0.42544900    4.24115600
 C                 -5.72596100   -1.40199300    4.53174400
 C                 -4.38286900   -1.18124400    4.23653200
 C                 -3.97223300    0.01686000    3.65638600
 C                 -4.92564700    1.00400200    3.39523300
 C                 -6.26948200    0.78273100    3.67534400
 H                 -7.72134100   -0.59987400    4.46073700
 H                 -6.03258700   -2.34066700    4.98231100
 H                 -3.64808100   -1.95369100    4.45019300
 H                 -4.61770100    1.95889900    2.97404400
 H                 -7.00167800    1.55478000    3.46025800

