210
cryptand_kowalski_SPEA_v4_27_wB97XD_631gd_INVERSION_V2.gjf
 C                  0.79252200    0.29638200   -2.91170300
 C                  1.41348700    1.63405400   -2.47527800
 C                  0.43081300    2.34128400   -1.53248200
 C                 -0.03144400    1.41527500   -0.40500500
 C                 -0.51511300    0.06820200   -0.93069200
 O                  0.48058600   -0.48407600   -1.76527200
 O                 -1.71261900    0.25525600   -1.60813700
 C                 -2.80774900   -0.53149400   -1.20213600
 O                 -2.48926300   -1.89753100   -1.22719700
 C                 -3.93187700   -0.30782800   -2.24387000
 C                 -4.46273400   -1.73181300   -2.48861500
 C                 -3.21404700   -2.58275500   -2.24531400
 C                 -3.30814000   -0.18155300    0.20074800
 O                 -2.41294500   -0.65972800    1.17934300
 C                 -2.33033900   -2.78156300   -3.47320100
 C                  1.69640700   -0.56127500   -3.80190200
 C                 -2.79290700   -0.30374200    2.49591200
 C                 -1.97524800   -1.08247700    3.51733300
 O                  2.59625400   -1.36824900   -3.06003500
 C                  2.22525500   -2.73913700   -3.01891900
 C                  3.37158500   -3.56564200   -2.45959400
 N                 -0.59456800   -0.62389400    3.65455400
 O                 -1.19781300   -3.56663600   -3.17773200
 C                 -1.44659200   -4.94806500   -3.01176000
 C                 -0.77734600   -5.43260600   -1.73512300
 N                 -1.42715700   -4.96307000   -0.51697600
 N                  1.21266100   -2.82287500    1.18119500
 C                  0.78059000   -2.48770500    2.54835500
 C                  0.05675900   -3.21970800    0.35202700
 C                  2.32876900   -3.78196600    1.16763600
 C                  0.27318500   -1.03455800    2.56568200
 C                  2.75412600   -4.24706100   -0.22882900
 C                 -0.47097300   -4.65259300    0.54058700
 N                  3.61737000   -3.34441100   -1.01974300
 O                 -3.40920600    0.23085500   -3.43365900
 C                 -4.60139900    2.37169100   -3.33234000
 C                 -3.68193900    2.89794300   -2.42252300
 C                 -3.96666900    4.08183200   -1.74774700
 C                 -5.17209600    4.74536300   -1.96327900
 C                 -6.09520800    4.22013800   -2.86362500
 C                 -5.80847900    3.03896300   -3.54313800
 C                 -4.30106200    1.09877600   -4.10046800
 O                 -5.43483900   -2.14823700   -1.55631100
 C                 -6.78070400   -0.47394700   -0.43300300
 C                 -6.82048800   -0.96451500    0.87444300
 C                 -6.74065000   -0.09462100    1.95703600
 C                 -6.62428600    1.27927200    1.74546700
 C                 -6.63218700    1.77918100    0.44695500
 C                 -6.72182600    0.90486200   -0.63366900
 C                 -6.68011400   -1.45159500   -1.58321500
 O                 -1.05237600    2.03883400    0.33536100
 C                 -1.78805100    3.21217700    2.28374600
 C                 -3.01206400    3.40549600    1.64708700
 C                 -4.01870200    4.14775300    2.26180600
 C                 -3.81385800    4.69873300    3.52168700
 C                 -2.59224500    4.50409800    4.16580700
 C                 -1.58728500    3.76778000    3.55015300
 C                 -0.67207700    2.43128300    1.63967500
 O                  1.02884700    3.48057900   -0.93941500
 C                  0.77854100    5.62600900    0.06777300
 C                  0.08092700    5.97892400    1.22196600
 C                  0.63202400    6.87217000    2.13721000
 C                  1.88810800    7.42145800    1.90256800
 C                  2.58767300    7.08215500    0.74508100
 C                  2.03373000    6.19268500   -0.16842300
 C                  0.19022300    4.63606100   -0.89908700
 O                  1.64758700    2.34479400   -3.66416400
 C                  3.87057100    3.26329200   -3.10174200
 C                  4.19494200    3.42222600   -1.75165100
 C                  5.49613300    3.20449900   -1.30368600
 C                  6.49192200    2.84380000   -2.20652600
 C                  6.17937500    2.69067900   -3.55629000
 C                  4.87400600    2.88482400   -3.99640200
 C                  2.46423300    3.51331400   -3.59610800
 C                  6.04398400   -2.65715700   -1.28084000
 C                  7.39134900   -2.94241000   -1.03919100
 C                  8.39500200   -2.10292300   -1.50437600
 C                  8.06685400   -0.96651000   -2.24289300
 C                  6.73186300   -0.68958400   -2.50984200
 C                  5.72480800   -1.52214200   -2.02466100
 C                  5.02057900   -3.58234400   -0.65669700
 C                 -3.38949300   -5.31617600    0.98119000
 C                 -4.03984100   -6.19505400    1.85019100
 C                 -4.92781700   -5.72263900    2.81113000
 C                 -5.16654300   -4.35547700    2.92377100
 C                 -4.51075400   -3.47490700    2.06898500
 C                 -3.62741800   -3.94572200    1.10136100
 C                 -2.47637900   -5.87683800   -0.08962000
 C                  1.30420300   -0.16564800    5.16410100
 C                  2.35200000   -0.79744400    5.83232000
 C                  3.56608900   -0.14207300    6.03159600
 C                  3.75493300    1.14422000    5.53857400
 C                  2.71433200    1.78283300    4.86650400
 C                  1.49693800    1.13520400    4.69077200
 C                 -0.02787200   -0.86077700    4.97694200
 H                 -0.12768400    0.52255300   -3.46523700
 H                  2.36436100    1.44889700   -1.94776700
 H                 -0.43832400    2.63952800   -2.13423700
 H                  0.82535100    1.21762900    0.24749200
 H                 -0.63189500   -0.64981600   -0.12957400
 H                 -4.69288800    0.35352800   -1.82829000
 H                 -4.84662800   -1.81871000   -3.51589600
 H                 -3.50488000   -3.54754300   -1.82126800
 H                 -4.28531300   -0.66047900    0.33113800
 H                 -3.43355200    0.90402400    0.27560400
 H                 -2.91925900   -3.23164800   -4.28779800
 H                 -1.95700000   -1.81374800   -3.81672400
 H                  1.06876100   -1.19759800   -4.43560300
 H                  2.28202200    0.10128900   -4.44505400
 H                 -3.85741400   -0.53553900    2.64492500
 H                 -2.66767000    0.77473300    2.65368100
 H                 -2.46629200   -0.93623500    4.48535600
 H                 -2.05404800   -2.15823800    3.28309300
 H                  2.02527800   -3.09723800   -4.03895900
 H                  1.29662500   -2.86459000   -2.44967600
 H                  4.27481600   -3.31989100   -3.01991100
 H                  3.16438500   -4.63047200   -2.65012600
 H                 -1.03014900   -5.49260200   -3.87116300
 H                 -2.52342300   -5.16036300   -2.98340400
 H                  0.24766300   -5.05149100   -1.76421800
 H                 -0.69887200   -6.53494600   -1.75384400
 H                  0.00562300   -3.18169200    2.90783800
 H                  1.63354600   -2.59722100    3.22774900
 H                 -0.77648700   -2.55278700    0.58006900
 H                  0.27538500   -3.03547100   -0.70269800
 H                  2.08017500   -4.68591500    1.74560500
 H                  3.17788000   -3.31614800    1.68180200
 H                  1.14542700   -0.36919500    2.55134600
 H                 -0.27681300   -0.84661000    1.64845300
 H                  1.86127800   -4.44467200   -0.81858700
 H                  3.26054300   -5.21908800   -0.11834600
 H                  0.34039100   -5.40077500    0.56933600
 H                 -0.98361200   -4.72380500    1.50388100
 H                 -2.75715000    2.36257200   -2.22675700
 H                 -3.24427600    4.49036300   -1.04720600
 H                 -5.38837100    5.66963600   -1.43598200
 H                 -7.03966800    4.72701000   -3.03624200
 H                 -6.53508000    2.63228100   -4.24367500
 H                 -5.24375000    0.58043900   -4.34081600
 H                 -3.80962800    1.33354800   -5.04955600
 H                 -6.87767300   -2.03715500    1.03996000
 H                 -6.76445800   -0.48902300    2.96921900
 H                 -6.53715900    1.95672300    2.58962200
 H                 -6.55812200    2.84687200    0.26249400
 H                 -6.71782600    1.31052100   -1.64249800
 H                 -7.45482500   -2.22056700   -1.50297000
 H                 -6.81511200   -0.93821900   -2.54537300
 H                 -3.17406200    2.98028400    0.66417100
 H                 -4.96326000    4.29561200    1.74578600
 H                 -4.59639700    5.27884400    4.00090900
 H                 -2.42145600    4.93375100    5.14824500
 H                 -0.63037800    3.63834700    4.05115200
 H                  0.23435000    3.05325000    1.59633700
 H                 -0.45146900    1.54078800    2.24762500
 H                 -0.90192100    5.55522800    1.40859300
 H                  0.07609500    7.13555700    3.03208700
 H                  2.31927100    8.12001700    2.61331000
 H                  3.56248100    7.51955300    0.55157200
 H                  2.57837500    5.93945400   -1.07486600
 H                 -0.81712500    4.34837500   -0.57911700
 H                  0.11840300    5.06337000   -1.91130400
 H                  3.42016300    3.72924600   -1.05532300
 H                  5.73497500    3.34031600   -0.25257200
 H                  7.51015400    2.68795000   -1.86271700
 H                  6.95553900    2.42353800   -4.26779000
 H                  4.63539200    2.76435700   -5.05021200
 H                  1.98191100    4.27731500   -2.98041200
 H                  2.48998200    3.87399800   -4.62725000
 H                  7.65484600   -3.82605400   -0.46210300
 H                  9.43496700   -2.33822100   -1.29902300
 H                  8.84853200   -0.31248700   -2.61746100
 H                  6.45739400    0.18105600   -3.09429100
 H                  4.69373600   -1.27494100   -2.25753300
 H                  5.29695300   -4.62712100   -0.88512500
 H                  5.09595000   -3.47282400    0.43344300
 H                 -3.85290200   -7.26373900    1.77083600
 H                 -5.42780800   -6.42131300    3.47521700
 H                 -5.85668400   -3.98169700    3.67475300
 H                 -4.69285600   -2.40795100    2.14370300
 H                 -3.12033900   -3.24327200    0.44720600
 H                 -2.05790200   -6.84170400    0.25810200
 H                 -3.08361200   -6.11554500   -0.97319800
 H                  2.21405000   -1.80754800    6.21242000
 H                  4.37023500   -0.64309600    6.56227600
 H                  4.70608800    1.64770800    5.67939100
 H                  2.85000100    2.79047300    4.48355400
 H                  0.67663000    1.62837300    4.17776800
 H                 -0.73869600   -0.46779600    5.71436000
 H                  0.09056400   -1.93600100    5.20380200
 C                  3.90584000    0.15109100    0.48057900
 N                  2.87163900   -0.79509200   -0.05805200
 H                  4.50163300    0.44639700   -0.38859100
 C                  3.27656500    1.39598400    1.09662400
 C                  6.43395000   -2.00222400    3.23116900
 C                  5.07686100   -1.84857600    3.50533800
 C                  4.26642500   -1.13062100    2.63372400
 C                  4.79519100   -0.58694900    1.45965100
 C                  6.16080300   -0.71318500    1.21051100
 C                  6.97692900   -1.41703900    2.09219200
 H                  7.06685300   -2.56431000    3.91091100
 H                  4.64694600   -2.27343700    4.40637700
 H                  3.22016900   -0.98296700    2.89024100
 H                  6.59069400   -0.27802100    0.31291700
 H                  8.03553300   -1.51753100    1.87536100
 H                  2.73911300    1.99812400    0.36058500
 H                  2.60080800    1.14639300    1.92097600
 H                  4.07564700    2.01644100    1.51092700
 H                  2.25808000   -0.40190000   -0.78385900
 H                  3.29527300   -1.65512600   -0.50977800
 H                  2.22521400   -1.22964400    0.63828900
