210
ps176_SPEA_7_wB97XD_631gd_INVERSION_FREQ.gjf
 N                 -2.85771200   -2.01562100    1.80599000
 C                 -2.84043800   -1.02947000    2.89128800
 C                 -2.40824000    0.36491500    2.47292200
 O                 -3.21671600    0.81769500    1.40791000
 C                 -2.79138100    2.05652700    0.85515400
 C                 -3.96652600    2.70264900    0.15015400
 O                 -4.50764600    1.89687100   -0.87761600
 C                 -3.81326400    2.01224700   -2.10397800
 C                 -4.37105600    1.01605700   -3.09561800
 N                 -4.27430200   -0.38576600   -2.67455700
 C                 -3.42584600   -3.26872800    2.28773500
 C                 -3.73720800   -4.26923300    1.19118700
 C                 -6.11805300   -4.01717300   -1.59172900
 C                 -4.92098200   -1.23691000   -3.68000300
 O                 -4.71192400   -3.74090900    0.31037100
 O                 -5.85962300   -2.72297000   -2.07886900
 C                 -4.96373800   -4.58913700   -0.79078100
 C                 -5.08407400   -2.68268800   -3.25988900
 O                  2.29555600   -0.22901500   -1.70663400
 C                  1.39848800   -0.50758000   -0.66543800
 C                  2.94984300   -0.00259500    1.05666500
 C                  2.21970900    1.28530300    1.45983900
 C                  1.43241800    1.85707500    0.27367400
 C                  0.58342100    0.74917700   -0.35608800
 O                  2.02660700   -0.94893300    0.50131000
 C                  3.68828400   -0.71601300    2.17479800
 C                  3.95468200   -2.09066500   -1.91822200
 C                  3.29186700   -3.36071200   -1.39357100
 C                  2.15127400   -3.56211400   -2.38050100
 O                  1.71597000   -2.23763800   -2.70230500
 C                  2.75000400   -1.29041100   -2.52207300
 C                  1.01864000   -4.38909900   -1.80466100
 C                  3.04240400   -0.68089500   -3.89209900
 O                  2.93146000   -0.92357600    3.35173800
 O                 -0.02363800   -4.67157500   -2.70459500
 C                  2.04875800   -2.02953300    3.33814900
 C                  0.59681000   -1.56923000    3.24782600
 O                 -0.27101200   -2.67503600    3.09255500
 C                 -0.50751300   -3.02944500    1.74835400
 C                 -1.60294900   -2.18244200    1.07999600
 C                 -2.92477700   -0.81075700   -2.28255700
 C                 -1.86440200   -0.88542000   -3.38020400
 O                 -2.04913300   -2.01303000   -4.21958400
 C                 -1.02242800   -2.98093700   -4.13433500
 C                 -1.04633500   -3.70711700   -2.78961300
 O                  4.23797400    0.05553800   -3.85551700
 C                  3.60972500    2.39924900   -4.09514200
 C                  2.68345700    3.16341600   -4.80229400
 C                  2.12970000    4.31120100   -4.23635600
 C                  2.49740400    4.69989500   -2.95330900
 C                  3.41794100    3.93661600   -2.23454900
 C                  3.96484100    2.79237300   -2.80237800
 C                  4.26828500    1.18397000   -4.71066300
 O                  3.15264300    2.27070800    1.86343600
 C                  2.24745300    2.88875900    4.07409500
 C                  2.04305100    4.26057500    4.23709800
 C                  0.98080400    4.73432500    4.99999400
 C                  0.10052200    3.83705400    5.60078800
 C                  0.29252200    2.46681300    5.44283500
 C                  1.36739500    1.99701100    4.69214700
 C                  3.41231500    2.36872700    3.26485800
 O                  0.51854700    2.84632500    0.69152500
 C                 -0.13565200    5.06312700    1.14905500
 C                 -0.88878400    4.72897300    2.27635400
 C                 -1.95542700    5.52742800    2.67305900
 C                 -2.28079000    6.67293100    1.94804600
 C                 -1.53025300    7.01576100    0.82752300
 C                 -0.46362500    6.21104500    0.43037600
 C                  1.00774500    4.17832700    0.73304900
 O                  4.65352200   -1.46458900   -0.88499700
 C                  6.38617600   -0.13628400    0.00264300
 C                  7.14336400   -0.97866000    0.81978600
 C                  7.64598100   -0.52581300    2.03434700
 C                  7.40123000    0.78454000    2.44362300
 C                  6.65675700    1.63468500    1.63182700
 C                  6.15215200    1.17325800    0.41894100
 C                  5.77154800   -0.66552000   -1.26439400
 O                  4.10125500   -4.50530600   -1.39162100
 C                  4.47059600   -4.71004400    1.03068900
 C                  5.09273700   -4.12847100    2.13553500
 C                  4.60661800   -4.34980500    3.42143800
 C                  3.47661600   -5.13914100    3.61247000
 C                  2.83165500   -5.69885600    2.51191500
 C                  3.33139000   -5.49170600    1.22999300
 C                  5.06578800   -4.54695000   -0.35198900
 O                 -0.25675500    1.15274400   -1.41109300
 C                 -0.58895100    2.83223800   -3.07511400
 C                 -0.97387100    3.86359800   -2.21578000
 C                 -1.76231800    4.90988500   -2.67614600
 C                 -2.18683500    4.93313800   -4.00561500
 C                 -1.82467300    3.89845300   -4.86261300
 C                 -1.02795700    2.85222600   -4.39621000
 C                  0.31774100    1.73984400   -2.57475900
 H                 -3.86586400   -0.95820300    3.27088800
 H                 -2.20116900   -1.34263300    3.73030700
 H                 -2.51797700    1.03415200    3.33966300
 H                 -1.34783400    0.40177800    2.18585900
 H                 -2.45214500    2.73193400    1.64986100
 H                 -1.94622200    1.90034700    0.17334700
 H                 -3.65437400    3.68248900   -0.23963200
 H                 -4.77552400    2.86362400    0.87039700
 H                 -3.93929600    3.02074900   -2.52262100
 H                 -2.73950500    1.86361100   -1.95787500
 H                 -5.43457700    1.23132500   -3.24700300
 H                 -3.86642700    1.19382600   -4.06062000
 H                 -2.77381200   -3.76717700    3.02581500
 H                 -4.36053400   -3.03216300    2.80474100
 H                 -2.83684100   -4.54292000    0.62026800
 H                 -4.11911600   -5.19108100    1.65395900
 H                 -6.99435400   -3.93226600   -0.94112700
 H                 -6.36940200   -4.70759000   -2.41053400
 H                 -5.91961500   -0.82149900   -3.85429300
 H                 -4.37988800   -1.22026900   -4.63755700
 H                 -5.23224600   -5.59860600   -0.44437300
 H                 -4.05547600   -4.68056100   -1.40685400
 H                 -4.10491400   -3.15632200   -3.11911600
 H                 -5.59708200   -3.22321100   -4.06959200
 H                  0.72193700   -1.31281900   -0.96056900
 H                  3.68566400    0.24865300    0.29290400
 H                  1.49950200    1.08232400    2.26063500
 H                  2.14986100    2.26810800   -0.44949900
 H                 -0.12372200    0.44451800    0.42246700
 H                  4.05789600   -1.66750600    1.77432900
 H                  4.55740100   -0.11965000    2.46258400
 H                  4.63585900   -2.36576600   -2.73739500
 H                  2.89809300   -3.14732800   -0.38857500
 H                  2.53002100   -4.05096000   -3.28801400
 H                  1.44743200   -5.35172300   -1.50918800
 H                  0.63239700   -3.89583300   -0.89877600
 H                  3.12469000   -1.50013800   -4.62120400
 H                  2.18765700   -0.05240300   -4.16979200
 H                  2.19462100   -2.58932000    4.26726500
 H                  2.27978600   -2.70502000    2.50624100
 H                  0.29921100   -1.05528600    4.16827200
 H                  0.49301900   -0.86455200    2.41592900
 H                 -0.79580000   -4.08572700    1.76571900
 H                  0.41315600   -2.95328300    1.15012600
 H                 -1.21963000   -1.18725900    0.84532900
 H                 -1.81927000   -2.64187400    0.10496200
 H                 -2.56908200   -0.12823700   -1.50460400
 H                 -3.01536300   -1.79530500   -1.80732000
 H                 -0.87397700   -0.90595600   -2.90880300
 H                 -1.90077700    0.01717200   -4.00402100
 H                 -0.03616700   -2.52451300   -4.28044200
 H                 -1.20093700   -3.69494000   -4.94207300
 H                 -0.95356900   -2.97678900   -1.97367700
 H                 -2.01141300   -4.21995400   -2.67127100
 H                  2.39276600    2.86478900   -5.80691500
 H                  1.39582700    4.88810000   -4.79010300
 H                  2.06350900    5.59229300   -2.51200200
 H                  3.71000800    4.23259200   -1.23046300
 H                  4.67777600    2.19504300   -2.24304600
 H                  3.81456200    0.94759800   -5.68331700
 H                  5.33019300    1.38369100   -4.88469200
 H                  2.73128100    4.96419700    3.77430200
 H                  0.83582300    5.80290000    5.12273100
 H                 -0.72650800    4.20671900    6.19981600
 H                 -0.37982200    1.76277800    5.92536000
 H                  1.55492600    0.93009500    4.60079300
 H                  4.25670200    3.05960900    3.33198100
 H                  3.73081400    1.40237200    3.66739100
 H                 -0.63092700    3.83642700    2.83848200
 H                 -2.52774600    5.26041600    3.55722700
 H                 -3.11131300    7.29919800    2.25966000
 H                 -1.77320600    7.91023900    0.26141900
 H                  0.11201500    6.47479100   -0.45414900
 H                  1.83960800    4.24826800    1.44121800
 H                  1.37929300    4.47165800   -0.25952700
 H                  7.34349300   -1.99726800    0.49499100
 H                  8.23649400   -1.18906600    2.65910600
 H                  7.79773500    1.14191800    3.38902600
 H                  6.46435100    2.65763300    1.93996700
 H                  5.54752400    1.83602800   -0.19398100
 H                  6.48671400   -1.28815100   -1.82264000
 H                  5.44678800    0.14211200   -1.92522100
 H                  5.96428100   -3.49432400    1.99117400
 H                  5.10229600   -3.89210000    4.27198400
 H                  3.09126400   -5.30793100    4.61336900
 H                  1.94501400   -6.30952500    2.65471100
 H                  2.84726100   -5.94957700    0.37222200
 H                  5.68911800   -5.41361600   -0.59256600
 H                  5.70103900   -3.65358800   -0.37956400
 H                 -0.67231000    3.81861600   -1.17505900
 H                 -2.05005800    5.70391200   -1.99245700
 H                 -2.80305000    5.75032600   -4.36827400
 H                 -2.15837100    3.90501400   -5.89608000
 H                 -0.73269900    2.05420700   -5.07420600
 H                  1.30939700    2.14509000   -2.35975800
 H                  0.44524800    0.97135700   -3.34558000
 C                 -7.53482700   -0.73246200   -0.24534800
 H                 -7.40303600   -0.53446100   -1.31221300
 C                 -6.33697500   -0.22495100    0.54746200
 H                 -7.67589700   -1.80960300   -0.12063400
 H                 -8.43979300   -0.22799500    0.10231400
 N                 -5.07917500   -0.82852600    0.02037000
 H                 -6.21936600    0.84463900    0.36434900
 C                 -6.52082400   -0.90924100    4.80212400
 C                 -6.28614100    0.36952200    4.30532200
 C                 -6.23762600    0.58403400    2.93089400
 C                 -6.42612900   -0.47035300    2.03811900
 C                 -6.66333100   -1.75014400    2.54464500
 C                 -6.70989100   -1.96898700    3.91789700
 H                 -6.56213400   -1.07987000    5.87329800
 H                 -6.14248100    1.20103500    4.98844600
 H                 -6.04427900    1.58117500    2.54568500
 H                 -6.78886100   -2.58952200    1.86511500
 H                 -6.89533200   -2.96848000    4.29971400
 H                 -5.03381100   -1.85013500    0.14585900
 H                 -4.96198700   -0.62646000   -1.00605900
 H                 -4.26894900   -0.41968500    0.51462300
