179
ps199_RPEA_v3_7_wB97XD_631gd.gjf
 O                 -0.73196200    0.08232600   -0.64126500
 C                 -1.13730500   -0.79807300    0.38399600
 C                  1.04156600   -1.70313600    0.83240500
 C                  1.18212000   -0.93897400    2.15767700
 C                  0.30105200    0.30298300    2.18220600
 C                 -1.11392700   -0.03949200    1.71191400
 O                 -0.31959600   -1.92712300    0.47824900
 C                  1.74599300   -3.05496400    0.90679900
 C                 -0.18363800    0.36411500   -2.91441500
 C                  0.60663000   -0.94778100   -3.07288200
 C                 -0.52898800   -1.99306800   -3.05144700
 O                 -1.57377900   -1.39007400   -2.27146800
 C                 -1.29422900   -0.06354600   -1.94435800
 C                 -0.32279900   -3.35431300   -2.40309400
 C                 -2.66077600    0.60192700   -2.10079900
 O                 -2.66115800    1.99378200   -1.84188800
 O                  1.47836300   -3.78176600    2.08478200
 O                  0.59427000   -4.13201000   -3.14556200
 C                  0.23863400   -4.46650300    2.11480000
 C                 -0.47808000   -4.21026100    3.42429800
 O                 -0.93524400   -2.87538800    3.44769300
 C                 -1.75613100   -2.53751000    4.54238100
 C                 -3.23801700   -2.77442800    4.27829800
 C                 -2.49533600   -5.85586600    0.09747200
 C                 -1.50149800   -6.56110200   -0.79922100
 O                 -0.29729900   -5.82925100   -0.78694600
 C                  0.62465900   -6.18911600   -1.79658800
 C                  0.34999900   -5.52018100   -3.13896000
 C                 -5.84530000   -1.01671200   -2.19956000
 C                 -6.39733300    0.23763800   -2.84877100
 O                 -5.36821800    1.15139900   -3.16928500
 C                 -5.12192700    2.15481200   -2.20778800
 C                 -3.72727400    2.71935900   -2.44033000
 O                  2.54216100   -0.56227200    2.30176700
 C                  4.74725100   -1.26152900    2.82216200
 C                  5.45758000   -0.06358400    2.93063100
 C                  6.77419000    0.02001400    2.49145100
 C                  7.40059600   -1.10145900    1.94937600
 C                  6.70500100   -2.30300600    1.85086000
 C                  5.38234900   -2.37881500    2.28212700
 C                  3.30297300   -1.32596300    3.23760000
 O                  0.13244300    0.82114300    3.48881300
 C                  1.50978100    2.87250400    3.37948400
 C                  2.62127000    2.99617900    2.54544000
 C                  2.97436000    4.23080800    2.00524600
 C                  2.21388000    5.35960500    2.30138900
 C                  1.07994600    5.24085800    3.10579500
 C                  0.72565600    4.00227200    3.63169300
 C                  1.20855900    1.55461000    4.05698300
 O                  0.49972400    1.47241300   -2.39530100
 C                  2.82280600    2.01687600   -2.11348900
 C                  2.83908700    1.25508200   -0.94880900
 C                  3.94312100    1.26997500   -0.10271800
 C                  5.03180800    2.08424300   -0.39338400
 C                  5.01461900    2.87064400   -1.54540000
 C                  3.92114400    2.82849300   -2.40459300
 C                  1.66426800    1.93200700   -3.07824300
 O                  1.31655000   -0.89602000   -4.28083800
 C                  3.45887400   -1.71767600   -3.41674900
 C                  3.53745200   -2.57227700   -2.31497700
 C                  4.54378500   -2.40718300   -1.36544000
 C                  5.47773500   -1.38678200   -1.50797900
 C                  5.41017500   -0.53553100   -2.60797500
 C                  4.40355500   -0.69782100   -3.55107300
 C                  2.35519600   -1.87071700   -4.43414000
 O                 -1.89018100    1.13628600    1.57988900
 C                 -3.40712900    2.75258400    2.40786100
 C                 -3.47858500    3.79609600    3.32896000
 C                 -4.17121500    4.96496600    3.01951600
 C                 -4.79680900    5.09783700    1.78376400
 C                 -4.72880700    4.05647300    0.85964600
 C                 -4.03505500    2.89230300    1.16910700
 C                 -2.66475100    1.48569900    2.72791900
 H                 -2.13798500   -1.17883100    0.18463700
 H                  1.53981200   -1.12646500    0.04196000
 H                  0.86181900   -1.58712700    2.97717100
 H                  0.74541600    1.06359200    1.52154500
 H                 -1.56723000   -0.70783200    2.44982300
 H                  1.50576600   -3.64748200    0.01471000
 H                  2.82162600   -2.86325900    0.90464100
 H                 -0.62540000    0.60661000   -3.89260000
 H                  1.28039800   -1.07776700   -2.21608400
 H                 -0.88290300   -2.12189700   -4.08285800
 H                  0.00366000   -3.21608100   -1.37136100
 H                 -1.30317700   -3.84428000   -2.35828800
 H                 -2.98739100    0.41669300   -3.12835000
 H                 -3.36062100    0.09880900   -1.42698400
 H                  0.42190200   -5.54458900    2.01198600
 H                 -0.39488500   -4.14515100    1.28516600
 H                 -1.31978600   -4.91930800    3.50775100
 H                  0.19671100   -4.39692500    4.27280100
 H                 -1.59406800   -1.47039200    4.72884600
 H                 -1.45834800   -3.09005400    5.44633800
 O                 -3.75479100   -1.88250400    3.30028000
 H                 -3.44530800   -3.81544100    4.00725000
 H                 -2.00215000   -5.62221700    1.04456600
 H                 -3.35610900   -6.50499200    0.30264100
 H                 -1.92450800   -6.63382800   -1.81076000
 H                 -1.33273800   -7.58345900   -0.42664500
 H                  1.60864100   -5.87264200   -1.43566200
 H                  0.64697900   -7.28201200   -1.93009100
 H                 -0.68203300   -5.72200500   -3.46528600
 H                  1.02665100   -5.94559900   -3.88664200
 H                 -6.58671300   -1.82665600   -2.21929500
 H                 -4.96252900   -1.32946700   -2.76943800
 H                 -6.87252500   -0.04368100   -3.79385400
 H                 -7.15985800    0.69872300   -2.20756900
 H                 -5.21400800    1.75912400   -1.18989900
 H                 -5.85202300    2.97167300   -2.32374700
 H                 -3.56093600    2.79888300   -3.52360500
 H                 -3.66588100    3.71961600   -2.00095400
 H                  4.97424400    0.80840200    3.36578700
 H                  7.31884800    0.95487500    2.58576500
 H                  8.43190000   -1.04057600    1.61544400
 H                  7.19157800   -3.18194800    1.43881800
 H                  4.84038700   -3.31928800    2.20990000
 H                  3.16745300   -0.90402900    4.24513400
 H                  2.95101500   -2.36237000    3.25850600
 H                  3.21770700    2.11652900    2.32594300
 H                  3.84428900    4.30181700    1.35834500
 H                  2.49634000    6.32915500    1.90146500
 H                  0.47931600    6.11681200    3.33175400
 H                 -0.14778700    3.91615000    4.27413300
 H                  0.88999500    1.73743800    5.08704100
 H                  2.11629700    0.94686600    4.08625400
 H                  1.98292000    0.63238300   -0.71557100
 H                  3.94842000    0.62151300    0.76660000
 H                  5.89586800    2.08979100    0.26514100
 H                  5.86069600    3.50980000   -1.78191000
 H                  3.91546800    3.43697300   -3.30560900
 H                  1.90669100    1.24414000   -3.89334400
 H                  1.44513400    2.91788600   -3.50464400
 H                  2.80680200   -3.37259500   -2.21770800
 H                  4.60941400   -3.08059800   -0.51573700
 H                  6.24935400   -1.25023900   -0.75659200
 H                  6.13162300    0.26709500   -2.71948700
 H                  4.34821000   -0.02691200   -4.40535800
 H                  1.92485200   -2.87537200   -4.38788700
 H                  2.73448900   -1.69373000   -5.44356100
 H                 -2.99013200    3.69603100    4.29528500
 H                 -4.22062000    5.77200400    3.74394300
 H                 -5.33877600    6.00693700    1.54260300
 H                 -5.22962400    4.15450900   -0.09989800
 H                 -3.95019500    2.08371600    0.45059300
 H                 -3.35490500    0.66060200    2.94850100
 H                 -2.00850600    1.62257600    3.59085000
 H                 -3.79526400   -2.55486800    5.19433400
 O                 -2.92863500   -4.69124800   -0.57942800
 O                 -5.49661500   -0.71959100   -0.85551300
 C                 -4.23663700   -2.78830200   -0.71828800
 C                 -3.49685100   -3.65371200    0.08940000
 C                 -3.32885600   -3.40984700    1.44972400
 C                 -3.89339700   -2.25330800    1.99730200
 C                 -4.62396600   -1.36893100    1.20885900
 C                 -4.79140500   -1.64690600   -0.14894600
 H                 -4.33242700   -3.03459600   -1.76615600
 H                 -2.71997200   -4.05890700    2.05597000
 H                 -5.07667000   -0.48577000    1.64408800
 C                 -0.12415300    4.25431100   -0.07466700
 H                  0.72331200    4.19676400    0.60902900
 C                 -1.21868200    5.11600300    0.54217900
 N                 -0.61433900    2.85479900   -0.21248600
 C                  1.24651300    5.79958500   -3.85761200
 C                 -0.05630700    5.31775100   -3.73553100
 C                 -0.49827400    4.81112200   -2.51974000
 C                  0.35510100    4.76990500   -1.41395500
 C                  1.65821600    5.24286000   -1.54704000
 C                  2.10116100    5.76188500   -2.76115600
 H                  1.59086600    6.20241700   -4.80498400
 H                 -0.72789800    5.34131400   -4.58812100
 H                 -1.51613500    4.44042600   -2.43937200
 H                  2.33642600    5.19074700   -0.70046200
 H                  3.11922800    6.12828500   -2.84912300
 H                 -1.52673500    4.72782200    1.51726800
 H                 -0.84133200    6.13246400    0.67731100
 H                 -2.10145200    5.16268400   -0.10406600
 H                 -1.44418400    2.75772600   -0.82414500
 H                  0.07636300    2.23907700   -0.66721300
 H                 -0.91237000    2.42330700    0.67924800

