179
ps199_SPEA_v1_11_wB97XD_631gd_step_371_wB97XD_631gd.gjf
O          1.02068       -0.36095       -0.65534 1
C          1.21087       -1.45011       -1.49285 1
C          0.05811       -0.25519       -3.18489 1
C          1.36917        0.32632       -3.74819 1
C          2.61890        0.08483       -2.86374 1
C          2.58806       -1.24445       -2.10991 1
O          0.25281       -1.50783       -2.52992 1
C         -0.97990       -0.51089       -4.25746 1
C          0.17957        1.08632        1.01257 1
C         -1.23827        1.67041        0.96845 1
C         -2.11304        0.66102        0.20642 1
O         -1.24187       -0.39639       -0.22674 1
C          0.04825       -0.31403        0.34408 1
C         -2.85676        1.20079       -1.02837 1
C          0.15614       -1.43615        1.37652 1
O          1.34003       -1.33134        2.12193 1
O         -2.18084       -0.84974       -3.59641 1
O         -4.25855        0.99239       -0.96860 1
C         -3.31746       -0.93900       -4.42465 1
C         -4.54875       -1.04055       -3.55145 1
O         -4.51012       -2.26514       -2.82573 1
C         -5.65054       -2.50042       -2.00780 1
C         -5.42459       -2.05148       -0.57904 1
C         -5.16918        0.40719        3.91034 1
C         -4.99901        1.67137        3.08936 1
O         -5.11462        1.38547        1.71492 1
C         -4.80623        2.49047        0.89926 1
C         -5.02428        2.10219       -0.54909 1
C         -0.71112       -4.11324        4.46357 1
C          0.40645       -3.07470        4.58147 1
O          1.65898       -3.53429        4.12500 1
C          1.79256       -3.67886        2.72728 1
C          2.25382       -2.41224        2.02583 1
O          1.16636        1.69896       -4.05048 1
C         -0.37657        3.24533       -2.92545 1
C         -1.29560        3.12817       -3.96409 1
C         -2.53120        3.77048       -3.88863 1
C         -2.84993        4.55131       -2.78183 1
C         -1.92606        4.68833       -1.74522 1
C         -0.70020        4.03671       -1.81830 1
C          0.97679        2.57100       -2.94238 1
O          3.80404        0.08606       -3.62835 1
C          4.74421        2.16559       -2.71455 1
C          4.45600        3.52652       -2.61712 1
C          4.85996        4.26393       -1.50500 1
C          5.55971        3.64248       -0.47575 1
C          5.85797        2.28403       -0.56763 1
C          5.45169        1.55212       -1.67786 1
C          4.32344        1.37386       -3.93596 1
O          1.04266        1.96351        0.33763 1
C          2.86941        2.31716        1.92077 1
C          2.97213        1.47938        3.03335 1
C          3.32530        1.99899        4.27736 1
C          3.58280        3.35950        4.41788 1
C          3.49176        4.20148        3.31050 1
C          3.14012        3.67996        2.07057 1
C          2.44509        1.76980        0.58377 1
O         -1.80326        1.84298        2.25154 1
C         -1.37979        4.25513        2.45130 1
C         -0.32613        4.89361        1.79647 1
C         -0.49167        6.16904        1.26256 1
C         -1.71902        6.81710        1.37379 1
C         -2.78032        6.18416        2.01924 1
C         -2.60788        4.91249        2.55602 1
C         -1.19400        2.87096        3.02869 1
O          3.50905       -1.21385       -1.05161 1
C          5.20277       -2.14321        0.28396 1
C          5.61708       -3.34253        0.85925 1
C          6.11922       -3.36767        2.15895 1
C          6.20521       -2.19056        2.89663 1
C          5.79262       -0.98721        2.32683 1
C          5.29585       -0.96510        1.02851 1
C          4.59861       -2.11371       -1.09802 1
H          1.14867       -2.41007       -0.97194 1
H         -0.36297        0.44844       -2.46258 1
H          1.58504       -0.14124       -4.71597 1
H          2.67463        0.86060       -2.09513 1
H          2.78859       -2.07284       -2.80052 1
H         -1.10914        0.39400       -4.86279 1
H         -0.65320       -1.33025       -4.91739 1
H          0.50199        0.95012        2.05006 1
H         -1.19022        2.62936        0.44046 1
H         -2.84828        0.24964        0.90492 1
H         -2.64493        2.26148       -1.19408 1
H         -2.50838        0.64567       -1.90149 1
H         -0.70576       -1.32608        2.04560 1
H          0.05964       -2.41710        0.89100 1
H         -3.24422       -1.81314       -5.08889 1
H         -3.40907       -0.03776       -5.04916 1
H         -4.59625       -0.18824       -2.86218 1
H         -5.43717       -1.02915       -4.19847 1
H         -5.83535       -3.57833       -2.03100 1
H         -6.52797       -1.99001       -2.42316 1
O         -4.43897       -2.92444       -0.03723 1
H         -5.07536       -1.01238       -0.55612 1
H         -5.98493       -0.20783        3.51320 1
H         -5.42357        0.69079        4.93501 1
H         -4.01537        2.10406        3.30981 1
H         -5.77705        2.39364        3.38765 1
H         -5.46107        3.34679        1.13347 1
H         -3.77059        2.81344        1.07325 1
H         -4.81098        2.97381       -1.18541 1
H         -6.06768        1.80878       -0.69571 1
H         -0.28660       -5.10628        4.62745 1
H         -1.48203       -3.94270        5.22397 1
H          0.12356       -2.13604        4.09081 1
H          0.55327       -2.86316        5.64548 1
H          0.86376       -4.05901        2.28495 1
H          2.57250       -4.43330        2.57059 1
H          3.17420       -2.05649        2.49342 1
H          2.47879       -2.63418        0.97349 1
H         -1.02658        2.55524       -4.84501 1
H         -3.23801        3.67522       -4.70802 1
H         -3.80663        5.06337       -2.73191 1
H         -2.15984        5.29371       -0.87412 1
H          0.01061        4.13020       -1.00068 1
H          1.10197        2.05342       -1.98502 1
H          1.76181        3.33417       -2.99039 1
H          3.92061        4.02048       -3.42500 1
H          4.63023        5.32388       -1.44766 1
H          5.87116        4.20951        0.39587 1
H          6.41214        1.79526        0.22824 1
H          5.67844        0.49281       -1.74381 1
H          5.19119        1.17155       -4.57090 1
H          3.59958        1.94884       -4.52618 1
H          2.76383        0.41881        2.92049 1
H          3.40033        1.33872        5.13636 1
H          3.85999        3.76440        5.38648 1
H          3.70052        5.26201        3.41496 1
H          3.08597        4.32978        1.19976 1
H          2.69852        0.71086        0.49233 1
H          2.94030        2.31326       -0.22618 1
H          0.62771        4.38133        1.70748 1
H          0.33807        6.65751        0.76026 1
H         -1.84814        7.81414        0.96372 1
H         -3.73613        6.68996        2.11815 1
H         -3.43172        4.43023        3.07706 1
H         -1.67497        2.79171        4.00739 1
H         -0.12311        2.66602        3.16540 1
H          5.54055       -4.26861        0.29349 1
H          6.43523       -4.30922        2.59768 1
H          6.58694       -2.21175        3.91259 1
H          5.83969       -0.06470        2.89850 1
H          4.94020       -0.03420        0.60082 1
H          4.25586       -3.12034       -1.37871 1
H          5.32244       -1.78494       -1.85779 1
H         -6.35694       -2.13507       -0.00532 1
O         -3.97418       -0.35025        4.03937 1
O         -1.32305       -4.18431        3.17379 1
C         -2.67202       -2.21650        3.64139 1
C         -3.68607       -1.36249        3.19322 1
C         -4.31464       -1.55620        1.96250 1
C         -3.91573       -2.64705        1.18934 1
C         -2.92059       -3.52145        1.61865 1
C         -2.29366       -3.29639        2.84918 1
H         -2.21915       -1.99830        4.59919 1
H         -5.03229       -0.83524        1.59877 1
H         -2.69632       -4.41751        1.05107 1
C         -1.74388       -4.26434       -1.99565 2
H         -2.42212       -4.88068       -1.39802 2
C         -2.13918       -4.36349       -3.46465 2
N         -1.98725       -2.85550       -1.54164 2
C          2.33247       -5.36845       -1.07475 2
C          1.33665       -5.47563       -0.10917 2
C          0.02597       -5.11713       -0.41252 2
C         -0.30970       -4.65995       -1.68961 2
C          0.69516       -4.56923       -2.65630 2
C          2.00723       -4.91660       -2.35081 2
H          3.35278       -5.65484       -0.83875 2
H          1.57400       -5.85537        0.87832 2
H         -0.73672       -5.20921        0.35688 2
H          0.46398       -4.21768       -3.65526 2
H          2.77392       -4.84566       -3.11660 2
H         -1.59601       -3.62890       -4.06762 2
H         -1.91495       -5.36287       -3.84436 2
H         -3.20631       -4.16496       -3.58357 2
H         -1.28924       -2.20782       -1.95230 2
H         -2.92401       -2.53930       -1.84976 2
H         -1.94347       -2.75247       -0.52243 2

