179
ps199_SPEA_v1_11_wB97XD_631gd.gjf
 O                  0.06870400    0.86127600   -0.34591200
 C                 -0.14563000    1.52718100    0.84961800
 C                  1.07462200   -0.12823200    2.05637800
 C                  2.33446100    0.75015600    2.11201400
 C                  2.32849700    1.81696800    1.00989000
 C                  0.97733200    2.54873900    1.00143300
 O                 -0.11654500    0.65653800    1.97121800
 C                  0.95021800   -1.00010700    3.28823100
 C                 -0.26210800   -0.39859800   -2.29261900
 C                  0.27560500   -1.75660100   -1.87689000
 C                 -0.73441500   -2.28667400   -0.88044900
 O                 -1.18983100   -1.10038300   -0.20310900
 C                 -0.92078200    0.07775600   -0.95983800
 C                 -0.10276400   -3.27017600    0.10843700
 C                 -2.27575400    0.76313000   -1.12244600
 O                 -2.20469800    1.85807500   -1.99393300
 O                 -0.13192100   -1.88796800    3.10201900
 O                 -0.92999100   -4.37484900    0.42868600
 C                 -0.24660200   -2.88190600    4.09588000
 C                 -1.26321500   -3.90783100    3.64599800
 O                 -2.54084500   -3.28793700    3.55380400
 C                 -3.59279800   -4.16078500    3.15302700
 C                 -3.88340000   -4.05369600    1.66988200
 C                 -3.93375000   -4.38865700   -3.51376400
 C                 -2.51132000   -4.89431500   -3.36021300
 O                 -2.21979100   -5.09799600   -1.99592100
 C                 -0.88238300   -5.47854300   -1.76966500
 C                 -0.65388700   -5.57026100   -0.27372000
 C                 -6.36200600    1.36583300   -2.38324800
 C                 -5.17257400    2.07299800   -3.02684400
 O                 -4.85933600    3.30546700   -2.41401700
 C                 -4.10334800    3.24059100   -1.22354500
 C                 -2.60682200    3.10926600   -1.46336200
 O                  3.40345200   -0.15132000    1.98341000
 C                  5.45222300   -1.05788600    2.74473800
 C                  6.60421300   -1.20283300    1.97439300
 C                  7.36262600   -2.36944100    2.04753500
 C                  6.97161700   -3.40318900    2.89298100
 C                  5.81772700   -3.26787200    3.66460000
 C                  5.06587900   -2.10148900    3.58871100
 C                  4.61393300    0.18921400    2.65211500
 O                  3.38268000    2.72148000    1.26727600
 C                  5.14253700    2.34252400   -0.41010400
 C                  6.41561700    2.38615400    0.16424800
 C                  7.44217600    1.58588800   -0.32663100
 C                  7.20265400    0.72627300   -1.39812600
 C                  5.93895600    0.67999400   -1.97849400
 C                  4.91517100    1.48601100   -1.48734600
 C                  4.04102400    3.23389800    0.10491500
 O                  0.83423900    0.34595900   -2.72915900
 C                  1.89711000    2.22259600   -3.68041400
 C                  2.74152400    1.49126700   -4.51971600
 C                  3.96784400    2.01335400   -4.91614500
 C                  4.36276700    3.27800900   -4.48345700
 C                  3.52316000    4.01713500   -3.65685200
 C                  2.29844500    3.48786500   -3.25555800
 C                  0.58049800    1.65182200   -3.22776700
 O                  0.49346400   -2.68001200   -2.90711900
 C                  2.84939800   -2.95606000   -2.37967600
 C                  3.53595800   -1.90343700   -1.77180000
 C                  4.34483600   -2.12737100   -0.66196500
 C                  4.48526400   -3.41564900   -0.15517300
 C                  3.82693600   -4.47906100   -0.77244300
 C                  3.01010800   -4.24925600   -1.87618500
 C                  1.82422600   -2.67173800   -3.44720200
 O                  0.88289600    3.48885000   -0.04461400
 C                  0.01504400    5.57760500    0.90124100
 C                 -1.07656300    5.88578600    0.08431200
 C                 -2.15298000    6.61047300    0.58178400
 C                 -2.14692700    7.04573100    1.90749400
 C                 -1.06609400    6.74348800    2.73009600
 C                  0.00815200    6.00910100    2.22766400
 C                  1.19571700    4.82884700    0.33176700
 H                 -1.12078300    2.01664600    0.89151700
 H                  1.14928100   -0.76692900    1.17069100
 H                  2.37845000    1.26976100    3.08434800
 H                  2.46638600    1.31509200    0.04450000
 H                  0.82853700    3.04351800    1.97213000
 H                  1.89017500   -1.55345300    3.40912800
 H                  0.78661900   -0.37571300    4.18110600
 H                 -1.03146600   -0.49248200   -3.07405100
 H                  1.20523200   -1.55032000   -1.33282400
 H                 -1.58225700   -2.75992100   -1.38829100
 H                  0.85750300   -3.62734100   -0.28602600
 H                  0.08596700   -2.74297200    1.04608500
 H                 -2.95032900    0.00709800   -1.53585300
 H                 -2.68194200    1.04786000   -0.14122200
 H                 -0.54783100   -2.43389500    5.05466800
 H                  0.71775300   -3.39068200    4.24413100
 H                 -0.97339700   -4.32531900    2.67405300
 H                 -1.30004100   -4.71541700    4.39056400
 H                 -4.47831600   -3.87166300    3.72655100
 H                 -3.34041000   -5.19745200    3.40631900
 O                 -4.47694000   -2.77694100    1.46390200
 H                 -2.95233700   -4.14806200    1.10009800
 H                 -4.60134000   -4.91683100   -2.82340600
 H                 -4.26676700   -4.58753400   -4.53607300
 H                 -1.81269800   -4.16822500   -3.80117200
 H                 -2.41335500   -5.84459600   -3.90942000
 H                 -0.67594700   -6.46519100   -2.21660100
 H                 -0.19941200   -4.74831500   -2.22539700
 H                  0.38563600   -5.88549800   -0.09564900
 H                 -1.32300600   -6.32023900    0.15778300
 H                 -7.11672500    2.11181400   -2.12538600
 H                 -6.81239900    0.65049500   -3.08232700
 H                 -4.29502400    1.41847200   -3.07132400
 H                 -5.45445800    2.32283400   -4.05516200
 H                 -4.46927100    2.44841800   -0.55772800
 H                 -4.26960800    4.19346500   -0.70973700
 H                 -2.29779700    3.84694000   -2.20920700
 H                 -2.06960300    3.32420600   -0.52834000
 H                  6.90376200   -0.40011200    1.30636200
 H                  8.25827200   -2.46968400    1.44209100
 H                  7.56445400   -4.31073500    2.95510400
 H                  5.51280300   -4.06922900    4.33112400
 H                  4.17364500   -1.99104400    4.20121400
 H                  5.13944100    0.97947100    2.10903800
 H                  4.37687500    0.56823900    3.65825900
 H                  6.60572600    3.06351000    0.99376800
 H                  8.43101800    1.63824600    0.11965900
 H                  8.00357300    0.10447000   -1.78653600
 H                  5.74790100    0.02221700   -2.82080300
 H                  3.93878700    1.47228600   -1.96560100
 H                  3.31018900    3.41490300   -0.68919000
 H                  4.45364600    4.19768000    0.41845900
 H                  2.43313300    0.50651900   -4.85932900
 H                  4.61802900    1.43468200   -5.56551000
 H                  5.32288400    3.68245200   -4.78781900
 H                  3.82568000    5.00268800   -3.31512400
 H                  1.64796300    4.05260700   -2.59302400
 H                 -0.13944300    1.59339500   -4.05787000
 H                  0.14358000    2.27790700   -2.44565900
 H                  3.39856000   -0.89324900   -2.15085400
 H                  4.84533100   -1.29342600   -0.18354300
 H                  5.10939200   -3.58657200    0.71691300
 H                  3.95019200   -5.48884300   -0.39116700
 H                  2.48553000   -5.07755800   -2.34866100
 H                  1.81069700   -3.45085900   -4.21306200
 H                  2.01865900   -1.70638600   -3.92634300
 H                 -1.06702000    5.57016600   -0.95534300
 H                 -2.98746600    6.85618400   -0.06868800
 H                 -2.97884200    7.62667400    2.29404100
 H                 -1.05441400    7.08332100    3.76106000
 H                  0.85830200    5.78784200    2.86881000
 H                  2.03046600    4.83483600    1.04057700
 H                  1.53573800    5.31187100   -0.58979600
 H                 -4.58085900   -4.84347400    1.36111700
 O                 -4.05798100   -2.98007000   -3.36106500
 O                 -6.05987500    0.71509600   -1.15040100
 C                 -5.07381500   -1.18182700   -2.31421500
 C                 -4.46231400   -2.43314000   -2.18827200
 C                 -4.24986000   -3.02868600   -0.94460700
 C                 -4.66064000   -2.32621300    0.19012400
 C                 -5.25790600   -1.07277800    0.09457500
 C                 -5.46966800   -0.50224500   -1.16397200
 H                 -5.20782400   -0.78493100   -3.31158300
 H                 -3.72376500   -3.97142600   -0.87968100
 H                 -5.61071600   -0.56132800    0.98102500
 C                 -3.50129400   -0.07391000    3.25354400
 H                 -4.43283000   -0.64572800    3.22664200
 C                 -2.85629800   -0.21337700    4.62981400
 N                 -2.61664500   -0.74066300    2.24508800
 C                 -4.28192400    4.01804700    2.15161500
 C                 -5.31719500    3.08931500    2.15964900
 C                 -5.06133400    1.76453600    2.50441000
 C                 -3.77294200    1.35866700    2.85158000
 C                 -2.74334300    2.30392300    2.85719300
 C                 -2.99147200    3.62265900    2.49547800
 H                 -4.47302400    5.05176000    1.88106800
 H                 -6.32522300    3.39005200    1.89307100
 H                 -5.87904100    1.04900700    2.51921000
 H                 -1.73840500    2.01102700    3.14874400
 H                 -2.18241200    4.34524500    2.49691900
 H                 -1.85878200    0.23844500    4.64413900
 H                 -3.47218900    0.29770300    5.37321800
 H                 -2.76873300   -1.26772700    4.90238900
 H                 -2.46606500   -1.72437500    2.52931200
 H                 -3.03261300   -0.74894600    1.30866600
 H                 -1.68218700   -0.29957400    2.17073200

