179
ps199_RPEA_v1_11_wB97XD_631gd_step_12_wB97XD_631gd_INVERSION_v2.log
O			0.387625	0.903668	-0.785950 1
C			0.076660	1.810042	0.219219 1
C			0.960341	0.409685	1.963653 1
C			2.253888	1.249993	2.036523 1
C			2.507807	2.019121	0.728246 1
C			1.237835	2.779528	0.353063 1
O			-0.127130	1.200069	1.468502 1
C			0.509694	-0.088819	3.319912 1
C			0.199386	-0.839172	-2.356832 1
C			0.387584	-2.150242	-1.608335 1
C			-0.821745	-2.230317	-0.693646 1
O			-1.037967	-0.869128	-0.301132 1
C			-0.570942	0.025237	-1.308486 1
C			-0.564732	-3.106584	0.528828 1
C			-1.830725	0.680942	-1.875177 1
O			-1.599340	1.434649	-3.034621 1
O			-0.602882	-0.939049	3.116184 1
O			-1.694493	-3.844128	0.955367 1
C			-0.967694	-1.663621	4.268015 1
C			-2.164598	-2.523201	3.939022 1
O			-3.286737	-1.690531	3.647259 1
C			-4.460888	-2.419593	3.307532 1
C			-4.596997	-2.637100	1.812538 1
C			-4.388221	-4.160994	-3.196947 1
C			-3.129670	-4.900626	-2.786910 1
O			-2.965852	-4.811303	-1.390703 1
C			-1.788655	-5.425027	-0.924517 1
C			-1.705603	-5.204467	0.573697 1
C			-5.705718	2.021314	-3.576952 1
C			-4.363647	2.290361	-4.248464 1
O			-3.767882	3.500304	-3.825492 1
C			-2.987161	3.440612	-2.653691 1
C			-1.598696	2.845169	-2.867934 1
O			3.378832	0.517727	2.454435 1
C			3.251068	-1.887213	2.568720 1
C			3.574319	-1.969101	3.927088 1
C			3.116637	-3.029215	4.700148 1
C			2.331906	-4.029008	4.122816 1
C			2.020827	-3.961620	2.769337 1
C			2.480616	-2.895047	1.999661 1
C			3.704147	-0.686791	1.767924 1
O			3.545583	2.945240	0.953027 1
C			5.451505	1.771359	-0.038074 1
C			6.308173	1.567085	1.047051 1
C			7.175167	0.480995	1.065614 1
C			7.194569	-0.415591	-0.004348 1
C			6.331715	-0.227257	-1.079456 1
C			5.457049	0.857573	-1.090004 1
C			4.538072	2.973178	-0.066000 1
O			1.457759	-0.351514	-2.717698 1
C			2.870750	1.160707	-3.884763 1
C			3.744866	0.197002	-4.393892 1
C			5.051961	0.535981	-4.727744 1
C			5.497721	1.847042	-4.566497 1
C			4.632071	2.812974	-4.063644 1
C			3.327081	2.467769	-3.717274 1
C			1.449989	0.810298	-3.537801 1
O			0.458109	-3.300321	-2.403862 1
C			2.768544	-3.890877	-1.888783 1
C			3.798137	-3.011212	-1.549508 1
C			4.717538	-3.353042	-0.558828 1
C			4.609035	-4.570011	0.104956 1
C			3.572107	-5.445036	-0.213143 1
C			2.656536	-5.103702	-1.201891 1
C			1.756288	-3.541274	-2.952825 1
O			1.370862	3.536136	-0.827928 1
C			0.361193	5.555124	0.094209 1
C			-0.850951	5.679012	-0.588663 1
C			-1.987490	6.153502	0.057221 1
C			-1.921062	6.523000	1.400220 1
C			-0.712857	6.427128	2.084605 1
C			0.420250	5.940390	1.434609 1
C			1.555631	4.935559	-0.594691 1
H			-0.848896	2.354788	0.007942 1
H			1.092965	-0.444904	1.292017 1
H			2.118671	2.007349	2.819423 1
H			2.764971	1.324726	-0.081439 1
H			0.978447	3.432033	1.194945 1
H			1.329615	-0.633889	3.799152 1
H			0.227323	0.762897	3.955592 1
H			-0.436846	-0.994558	-3.240911 1
H			1.294598	-2.039218	-0.994532 1
H			-1.695729	-2.603366	-1.244374 1
H			0.259228	-3.796303	0.302930 1
H			-0.264631	-2.464511	1.361777 1
H			-2.505479	-0.138903	-2.136635 1
H			-2.340809	1.264900	-1.097273 1
H			-1.204957	-0.976721	5.092986 1
H			-0.140621	-2.317490	4.584752 1
H			-1.939463	-3.170120	3.082536 1
H			-2.399438	-3.151269	4.809835 1
H			-5.311280	-1.835417	3.670507 1
H			-4.462563	-3.387308	3.824185 1
O			-4.947308	-1.376946	1.252966 1
H			-3.651499	-3.001014	1.394585 1
H			-5.199370	-4.375951	-2.492039 1
H			-4.690755	-4.506435	-4.189512 1
H			-2.260982	-4.471423	-3.307975 1
H			-3.225345	-5.956180	-3.088200 1
H			-1.808668	-6.509782	-1.120224 1
H			-0.910272	-5.004591	-1.436034 1
H			-0.810966	-5.717481	0.959604 1
H			-2.586262	-5.636388	1.057300 1
H			-6.284777	2.946782	-3.559805 1
H			-6.273099	1.270067	-4.140689 1
H			-3.673412	1.450138	-4.124641 1
H			-4.554821	2.413097	-5.319967 1
H			-3.520085	2.916512	-1.848820 1
H			-2.866163	4.481103	-2.335604 1
H			-1.181770	3.248806	-3.794837 1
H			-0.927784	3.132774	-2.046832 1
H			4.167968	-1.179421	4.378638 1
H			3.373623	-3.081056	5.753971 1
H			1.978759	-4.860785	4.725275 1
H			1.425073	-4.742864	2.304948 1
H			2.250017	-2.854432	0.938793 1
H			3.286201	-0.712327	0.753434 1
H			4.792989	-0.682561	1.660210 1
H			6.288220	2.264408	1.879877 1
H			7.845092	0.336233	1.907888 1
H			7.885744	-1.253734	0.001101 1
H			6.341366	-0.916179	-1.919770 1
H			4.784256	0.999387	-1.929780 1
H			4.066207	3.066965	-1.052028 1
H			5.108591	3.886524	0.127643 1
H			3.396613	-0.823311	-4.529283 1
H			5.723668	-0.221226	-5.121088 1
H			6.517592	2.111173	-4.827464 1
H			4.975706	3.834137	-3.928252 1
H			2.658077	3.213356	-3.294737 1
H			0.859133	0.609999	-4.444259 1
H			0.981340	1.643197	-3.006637 1
H			3.872080	-2.049770	-2.054583 1
H			5.506353	-2.656281	-0.294501 1
H			5.320441	-4.830714	0.882065 1
H			3.482760	-6.393875	0.307240 1
H			1.853002	-5.789941	-1.461133 1
H			1.612613	-4.377574	-3.641448 1
H			2.083891	-2.668149	-3.527023 1
H			-0.892203	5.416420	-1.642248 1
H			-2.921479	6.253223	-0.488493 1
H			-2.804275	6.901308	1.905666 1
H			-0.652949	6.729256	3.125868 1
H			1.362065	5.858025	1.972502 1
H			2.465833	5.093962	-0.005841 1
H			1.701948	5.365666	-1.588844 1
H			-5.388736	-3.368865	1.604764 1
O			-4.198161	-2.758811	-3.337118 1
O			-5.612417	1.631441	-2.207490 1
C			-4.942273	-0.628035	-2.820933 1
C			-4.584937	-1.899017	-2.361429 1
C			-4.569148	-2.217034	-1.002053 1
C			-4.945141	-1.219170	-0.100190 1
C			-5.302666	0.055793	-0.531114 1
C			-5.285211	0.356025	-1.896243 1
H			-4.923740	-0.456350	-3.888598 1
H			-4.222547	-3.189348	-0.678131 1
H			-5.663007	0.789004	0.181243 1
C			-3.354931	1.700441	2.338932 2
H			-4.343384	1.402448	2.702267 2
C			-3.528506	2.746552	1.244655 2
N			-2.762539	0.443341	1.765916 2
C			-0.878303	2.821206	5.691741 2
C			-1.815236	1.797524	5.812515 2
C			-2.620253	1.458562	4.729453 2
C			-2.498494	2.135972	3.514701 2
C			-1.561498	3.163770	3.402658 2
C			-0.755980	3.503788	4.484830 2
H			-0.252274	3.089618	6.536934 2
H			-1.925026	1.266965	6.753448 2
H			-3.336320	0.645735	4.823224 2
H			-1.447717	3.717147	2.476276 2
H			-0.033863	4.308000	4.379794 2
H			-2.577466	3.037914	0.790699 2
H			-4.186669	2.382091	0.451532 2
H			-3.972946	3.649654	1.670188 2
H			-2.869747	-0.350221	2.425699 2
H			-3.218414	0.171860	0.890032 2
H			-1.742785	0.549339	1.598450 2

