231
ps200_RPEA_v3_105_wB97XD_631gd_INVERSION_FREQ.gjf
 C                 -4.14643400    1.06197100   -0.83334500
 C                 -4.49568200    2.55189400   -0.68419600
 C                 -2.40510700    2.40905400    1.97304800
 C                 -2.95908900    4.48691100   -0.87579300
 C                 -1.46223600    4.74323200   -0.71070200
 O                  0.53317300   -1.64388900    0.30609000
 C                  0.05120300   -2.87493000   -0.12589900
 C                  0.56608800   -2.33200600   -2.39282500
 C                  1.87934800   -3.13634800   -2.33566300
 C                  2.38482900   -3.34760400   -0.89701500
 C                  1.22692600   -3.84206600   -0.02283400
 O                 -0.39481600   -2.82658300   -1.46022900
 C                 -0.09606200   -2.44069000   -3.74936100
 C                  0.62905800    0.49732700    1.23058900
 C                  0.66019800    1.35419400   -0.03427300
 C                 -0.70885700    1.13254800   -0.66684600
 O                 -1.16562000   -0.14603000   -0.17816000
 C                 -0.32557300   -0.66277700    0.82181700
 C                 -0.79168200    1.16497500   -2.19840100
 C                 -1.18061500   -1.13423600    1.99618800
 O                 -2.33226300   -1.85364000    1.57068500
 O                 -1.24659300   -1.62237700   -3.71745700
 O                  0.43156100    0.98278200   -2.87658700
 C                 -1.95261600   -1.53578200   -4.92745400
 C                 -2.86593700   -0.33326800   -4.85979100
 O                 -3.79508900   -0.48318600   -3.79866300
 C                 -4.65629100    0.63652800   -3.69575500
 C                 -5.71128100    0.41059500   -2.62843500
 C                 -0.98257800    6.08858600   -2.70182600
 C                  0.07468600    5.20616000   -3.38021900
 O                 -0.47964100    3.94951800   -3.72867200
 C                  0.49702600    3.04245500   -4.21756000
 C                  1.13810500    2.19597100   -3.12046800
 C                 -3.81800300    1.75349400    3.86668300
 C                 -3.68218200    0.57922600    4.83536300
 O                 -3.06785500   -0.55205900    4.24858100
 C                 -3.89878600   -1.27535500    3.37840200
 C                 -3.09156700   -2.34422200    2.66091700
 C                 -3.35667300    3.42574200    1.31037800
 N                 -3.36464100    3.29204100   -0.14621600
 N                 -5.19836100    0.15648200   -1.28629600
 C                 -6.91689200   -1.32939300   -0.26156900
 C                 -6.46873700   -2.25420600    0.68413200
 C                 -7.01482500   -3.53230600    0.75423900
 C                 -8.01437400   -3.91019100   -0.13867700
 C                 -8.47759000   -2.99445400   -1.07935800
 C                 -7.94101300   -1.71011700   -1.13024100
 C                 -6.29643700    0.04779200   -0.31573100
 N                 -1.06355200    6.03796300   -1.24729200
 C                 -0.09735300    7.04465700    0.81879700
 C                 -1.37254200    7.29976400    1.32174300
 C                 -1.53842800    7.79029000    2.61565800
 C                 -0.42950300    8.05275300    3.41544500
 C                  0.84848700    7.81162700    2.91552200
 C                  1.00915100    7.29821800    1.63261800
 C                  0.12872900    6.55473800   -0.59910100
 O                  2.81720900   -2.57657400   -3.22100400
 C                  3.77729400   -0.59657900   -4.12166500
 C                  5.11110800   -0.42638100   -4.48485300
 C                  5.44860700    0.27701800   -5.63931800
 C                  4.44970500    0.81004900   -6.44773900
 C                  3.11179900    0.63242200   -6.09880900
 C                  2.77993500   -0.06866900   -4.94509000
 C                  3.40642300   -1.32924300   -2.85791500
 O                  3.39939000   -4.32157600   -0.93259800
 C                  5.45985300   -3.11246600   -0.45674800
 C                  5.65428700   -1.91550700    0.23130200
 C                  6.58719400   -0.98381300   -0.22172800
 C                  7.32965700   -1.24384200   -1.36968100
 C                  7.13434000   -2.43722100   -2.06705700
 C                  6.20078600   -3.36167100   -1.61524600
 C                  4.44785900   -4.12906100    0.01333200
 O                  1.93354800    0.10700300    1.54507200
 C                  3.51366400   -0.77254500    3.09176600
 C                  4.33698500    0.34758800    2.96170700
 C                  5.67537200    0.28352600    3.33928600
 C                  6.20104500   -0.89613000    3.86177900
 C                  5.38011500   -2.01114700    4.00567900
 C                  4.04541700   -1.95031200    3.61718200
 C                  2.06739900   -0.73594800    2.67657700
 O                  0.82821400    2.73097600    0.19333000
 C                  3.17613100    3.00930400   -0.41974700
 C                  3.87459900    1.81329700   -0.61066800
 C                  4.74001100    1.66885400   -1.69135500
 C                  4.92154200    2.71352900   -2.59289400
 C                  4.26193600    3.92324000   -2.38819400
 C                  3.40077400    4.06704900   -1.30460300
 C                  2.12327600    3.13192500    0.65417600
 O                  1.67164700   -3.94293600    1.30715800
 C                  1.48855700   -4.74369800    3.50927600
 C                  2.67304800   -5.42555200    3.79509900
 C                  3.27499400   -5.29919300    5.04270200
 C                  2.69816600   -4.48541900    6.01629000
 C                  1.51474800   -3.80638400    5.74124300
 C                  0.91420900   -3.93815300    4.49205700
 C                  0.90227700   -4.80853700    2.12699500
 N                 -2.52449100    2.22659100    3.40583700
 C                 -0.43025400    3.28392300    4.17051200
 C                  0.28699600    4.40758500    3.76831100
 C                  1.68027000    4.41115700    3.81730400
 C                  2.36765800    3.28481100    4.25445500
 C                  1.65691000    2.14662400    4.63478200
 C                  0.26720600    2.14623000    4.58868800
 C                 -1.94308000    3.29490100    4.20633500
 H                 -3.30190700    0.98270700   -1.52194600
 H                 -3.77896400    0.66822900    0.11938900
 H                 -5.39361800    2.67170800   -0.05509000
 H                 -4.75768600    2.96024400   -1.66696700
 H                 -1.37223700    2.70217100    1.75257400
 H                 -2.55791600    1.43277000    1.50077200
 H                 -3.17690900    4.32429000   -1.93657500
 H                 -3.51655900    5.38696700   -0.56194600
 H                 -1.21260300    4.73514800    0.35471500
 H                 -0.89223400    3.91941900   -1.15762500
 H                 -0.81772000   -3.20388500    0.45073600
 H                  0.74991700   -1.27384100   -2.18548000
 H                  1.68912000   -4.13909100   -2.74032300
 H                  2.75560400   -2.40134500   -0.48121000
 H                  0.90121000   -4.82405700   -0.39558300
 H                  0.60510200   -2.11076300   -4.52511900
 H                 -0.37295900   -3.48847200   -3.95299900
 H                  0.18600300    1.06665500    2.06066600
 H                  1.44662700    0.95530700   -0.68628800
 H                 -1.40467000    1.88329800   -0.28930800
 H                 -1.43507500    0.33807800   -2.50628500
 H                 -1.25812800    2.10701800   -2.50971200
 H                 -0.56483300   -1.77636700    2.64242400
 H                 -1.48264600   -0.26182700    2.58367600
 H                 -2.53402000   -2.45411600   -5.10938800
 H                 -1.26451200   -1.39811000   -5.77464300
 H                 -2.26357800    0.57275200   -4.70239100
 H                 -3.40314900   -0.23104200   -5.81385800
 H                 -5.17315300    0.79484000   -4.65333200
 H                 -4.06266500    1.54058400   -3.49328300
 H                 -6.38053700    1.29139100   -2.65657600
 H                 -6.31761500   -0.45307900   -2.92367800
 H                 -1.95739000    5.83041500   -3.12963800
 H                 -0.79124500    7.13182900   -2.97695500
 H                  0.94374400    5.07266300   -2.71800900
 H                  0.43780000    5.70071200   -4.29509500
 H                 -0.00679400    2.38083600   -4.93146300
 H                  1.27829500    3.59097500   -4.76398600
 H                  1.21281000    2.78740300   -2.20283300
 H                  2.14700100    1.89460700   -3.40958700
 H                 -4.40961200    1.43693600    2.99967800
 H                 -4.41047000    2.54495300    4.35495400
 H                 -3.03713800    0.86057400    5.67302200
 H                 -4.67012500    0.31026000    5.24218700
 H                 -4.35137500   -0.62464700    2.61297200
 H                 -4.72165400   -1.75298000    3.93744300
 H                 -2.44216400   -2.86118300    3.38242800
 H                 -3.77691800   -3.08257400    2.23826000
 H                 -4.37592100    3.29369500    1.70606800
 H                 -3.05664600    4.44552800    1.58070100
 H                 -5.69303100   -1.95860300    1.38626700
 H                 -6.66657600   -4.23320200    1.50796700
 H                 -8.44301200   -4.90597100   -0.08912200
 H                 -9.26955400   -3.27550500   -1.76651800
 H                 -8.33534900   -0.99162000   -1.84457900
 H                 -5.88557900    0.28081900    0.67268700
 H                 -7.07865200    0.80021400   -0.51347600
 H                 -2.23157700    7.12372800    0.68127300
 H                 -2.53826200    7.98217500    2.99452600
 H                 -0.55827600    8.44555300    4.41923100
 H                  1.72066700    8.01744300    3.52926700
 H                  2.01001200    7.10520500    1.25003700
 H                  0.49679200    7.39910400   -1.19592200
 H                  0.94638900    5.81088200   -0.57837200
 H                  5.88950800   -0.84241400   -3.85114200
 H                  6.49315600    0.40545400   -5.90769100
 H                  4.71044500    1.35826900   -7.34814800
 H                  2.32741100    1.04599500   -6.72698700
 H                  1.73762400   -0.17612400   -4.65439900
 H                  2.70929300   -0.71194100   -2.27527200
 H                  4.29315400   -1.50414300   -2.23969400
 H                  5.07928300   -1.70875700    1.12902100
 H                  6.72588900   -0.05566600    0.32483300
 H                  8.06095500   -0.52131900   -1.72067700
 H                  7.71229600   -2.64501300   -2.96310600
 H                  6.03463200   -4.28400200   -2.16483300
 H                  4.03904000   -3.84864500    0.98958500
 H                  4.91769400   -5.11266900    0.11107900
 H                  3.93137800    1.26420200    2.54645400
 H                  6.31007100    1.15739500    3.22340800
 H                  7.24673400   -0.94693500    4.14908900
 H                  5.77992200   -2.93766000    4.40684700
 H                  3.41646800   -2.83033100    3.70247200
 H                  1.43793900   -0.35050800    3.49382800
 H                  1.73581400   -1.75035300    2.42945800
 H                  3.72732500    0.98698900    0.08069600
 H                  5.27135000    0.73336600   -1.82998200
 H                  5.57620600    2.58187100   -3.44902200
 H                  4.41746600    4.75242000   -3.07232300
 H                  2.88784100    5.01331500   -1.14631500
 H                  1.98692000    4.17451800    0.95268100
 H                  2.38688200    2.55837700    1.54753800
 H                  3.12947900   -6.04709400    3.02907500
 H                  4.19617700   -5.83279100    5.25596300
 H                  3.17103000   -4.38157500    6.98776100
 H                  1.06170200   -3.17229300    6.49696700
 H                 -0.00985800   -3.40495900    4.27821700
 H                 -0.15474500   -4.50229800    2.14375400
 H                  0.94286300   -5.83027900    1.72104700
 H                 -0.24208900    5.29372500    3.42710100
 H                  2.22195700    5.30040600    3.50976400
 H                  3.45291300    3.28531100    4.30084100
 H                  2.19513300    1.26719400    4.97702100
 H                 -0.29386700    1.26041500    4.87949800
 H                 -2.26424600    3.14167200    5.24361800
 H                 -2.31252900    4.29384600    3.91432800
 C                 -3.39732800   -3.43712800   -2.07828300
 N                 -3.05161700   -2.09847500   -1.49296600
 H                 -2.78841400   -3.48359300   -2.98362900
 C                 -4.87256900   -3.47715500   -2.45606700
 C                 -2.10025300   -6.53915300    0.62206300
 C                 -1.49629000   -6.39855900   -0.62461700
 C                 -1.92249700   -5.40251600   -1.49756600
 C                 -2.96014900   -4.54205600   -1.14098000
 C                 -3.57982800   -4.71003300    0.09688600
 C                 -3.14790400   -5.69461100    0.98001800
 H                 -1.76445100   -7.31115600    1.30742100
 H                 -0.68971800   -7.06368400   -0.91788900
 H                 -1.43074900   -5.28117900   -2.45796200
 H                 -4.41680600   -4.07246400    0.36763400
 H                 -3.63654700   -5.81147700    1.94289800
 H                 -5.52002400   -3.37043800   -1.58285700
 H                 -5.10245500   -2.67493300   -3.16302300
 H                 -5.09443100   -4.43701400   -2.92918900
 H                 -3.40795100   -1.95503200   -0.54405100
 H                 -3.41862500   -1.34683400   -2.09692100
 H                 -2.01997300   -2.01122700   -1.45447600
