231
ps200_RPEA_v3_105_wB97XD_631gd_INVERSION_V2_FREQ.gjf
 C                  4.30663200    1.40076200   -0.00398200
 C                  4.41956200    2.80856500    0.59935500
 C                  1.73413600    3.26453800   -1.48688400
 C                  2.80329000    4.28547700    1.73404100
 C                  1.29689800    4.32015300    1.97599400
 O                 -0.73816400   -1.37154400   -1.04492800
 C                 -0.15208100   -2.55647700   -1.48538600
 C                  0.04176100   -3.28002700    0.77104000
 C                 -1.23060600   -4.14203000    0.66552600
 C                 -2.14114200   -3.71791200   -0.49833000
 C                 -1.30937900   -3.51530300   -1.76852400
 O                  0.68525300   -3.13628600   -0.50391000
 C                  1.05792400   -3.88177700    1.71244100
 C                 -1.26955100    0.89006500   -0.76057800
 C                 -0.86731000    1.12396100    0.69440200
 C                  0.64645900    0.95540700    0.69286000
 O                  0.94214400    0.09853100   -0.43052600
 C                 -0.17944900   -0.10384500   -1.26297800
 C                  1.29271700    0.39713100    1.96969600
 C                  0.21225400    0.17409900   -2.71194100
 O                  1.37935500   -0.55317500   -3.07019900
 O                  2.04288500   -2.89419200    1.91964700
 O                  0.41811500   -0.22936200    2.87530900
 C                  3.03820400   -3.22835900    2.85522200
 C                  3.71756100   -1.94477500    3.26592200
 O                  4.34956800   -1.35209400    2.14010500
 C                  4.95070200   -0.11236200    2.46741400
 C                  5.97507900    0.28786600    1.42255800
 C                  1.32847200    4.81629700    4.37310700
 C                  0.70846700    3.52131600    4.91039400
 O                  1.45816300    2.39342700    4.49162300
 C                  0.84305300    1.16947800    4.86242100
 C                 -0.16214700    0.65119800    3.83295200
 C                  2.55083100    3.59471300   -3.78428700
 C                  2.08806200    3.03775700   -5.13179600
 O                  1.48821000    1.76470300   -5.01204900
 C                  2.39821300    0.69899900   -4.91657900
 C                  1.65898800   -0.54411500   -4.46000600
 C                  2.79334300    4.07689100   -0.71898400
 N                  3.12568000    3.46914800    0.56989200
 N                  5.47108800    0.52663300    0.07407700
 C                  7.43694900   -0.23425500   -1.22711300
 C                  7.11476500   -0.98749100   -2.35884200
 C                  7.85311900   -2.11440500   -2.70342700
 C                  8.93944800   -2.49986300   -1.92149600
 C                  9.29222200   -1.73978100   -0.81048500
 C                  8.54931200   -0.61075800   -0.47206000
 C                  6.56556900    0.93434100   -0.82058800
 N                  0.93409900    5.25025400    3.03780800
 C                 -0.80693000    6.53390300    1.79590000
 C                  0.17112900    7.23503100    1.09018500
 C                 -0.18279600    8.07489600    0.03614700
 C                 -1.52025200    8.24065100   -0.31255300
 C                 -2.50414500    7.55689100    0.39743000
 C                 -2.14614000    6.70355700    1.43650200
 C                 -0.46456100    5.63868100    2.97115700
 O                 -1.87452900   -4.20733300    1.91312100
 C                 -2.25291500   -2.97096500    3.91580900
 C                 -3.27311600   -3.34086200    4.78998400
 C                 -3.07856500   -3.29345800    6.16838000
 C                 -1.85452800   -2.87919600    6.68537200
 C                 -0.82639200   -2.51734800    5.81717000
 C                 -1.02403400   -2.56562600    4.44121900
 C                 -2.46655600   -3.01125200    2.42421000
 O                 -3.07992500   -4.74176100   -0.71965900
 C                 -5.14358400   -3.87869700    0.23956000
 C                 -5.63496100   -2.58317700    0.38857900
 C                 -6.30825400   -2.21055300    1.55133000
 C                 -6.49434500   -3.13639500    2.57336700
 C                 -5.99955200   -4.43439800    2.43202700
 C                 -5.32223000   -4.79984400    1.27525900
 C                 -4.39947300   -4.29370800   -1.00717500
 O                 -2.57752500    0.39962800   -0.79105300
 C                 -4.60774300    0.06301900   -2.00645900
 C                 -5.34226400    0.81878300   -1.09133700
 C                 -6.73007500    0.71587900   -1.04487300
 C                 -7.40046000   -0.13429200   -1.92114000
 C                 -6.67365100   -0.88017800   -2.84503000
 C                 -5.28609000   -0.78496800   -2.88286500
 C                 -3.10744300    0.14834600   -2.08347000
 O                 -1.18032300    2.40673500    1.17856000
 C                 -3.14961600    1.91181200    2.54019700
 C                 -3.67939400    0.62671200    2.38959300
 C                 -4.08765600   -0.10089100    3.50449200
 C                 -3.96866300    0.44217600    4.78029300
 C                 -3.47622500    1.73616600    4.93714400
 C                 -3.07810400    2.46516800    3.82096500
 C                 -2.57611200    2.66195400    1.36351100
 O                 -2.15944400   -3.00993900   -2.76724700
 C                 -2.72752100   -2.56279800   -5.00718200
 C                 -3.89353300   -3.28031300   -5.28153500
 C                 -4.90480600   -2.71381800   -6.05055900
 C                 -4.75979700   -1.42120600   -6.55144400
 C                 -3.59887500   -0.70107700   -6.28613500
 C                 -2.58848000   -1.27249800   -5.51759700
 C                 -1.68485900   -3.14858700   -4.09589800
 N                  1.45565700    3.67744500   -2.84269500
 C                 -0.87762300    4.43556700   -2.76937100
 C                 -1.59337200    4.84672500   -1.64839800
 C                 -2.93461400    4.49375600   -1.49712900
 C                 -3.56906500    3.72213500   -2.46302400
 C                 -2.85256400    3.29616000   -3.58326100
 C                 -1.51446400    3.63987700   -3.72784200
 C                  0.57152100    4.82800700   -2.96120900
 H                  3.46363500    0.91456900    0.49550900
 H                  4.02979800    1.47490700   -1.06284100
 H                  5.20339600    3.38962000    0.08154400
 H                  4.73664100    2.71979100    1.64291000
 H                  0.78896600    3.30486600   -0.93299700
 H                  2.03915900    2.21098000   -1.50150000
 H                  3.28986000    3.83222300    2.60289300
 H                  3.18207800    5.31913400    1.64683400
 H                  0.79291700    4.64886300    1.06186300
 H                  0.93122300    3.30647700    2.17971600
 H                  0.49079600   -2.39353100   -2.35028400
 H                 -0.19811200   -2.27819100    1.14073400
 H                 -0.93044400   -5.17727500    0.45977900
 H                 -2.63593900   -2.76711600   -0.26016800
 H                 -0.89066600   -4.48606900   -2.07421400
 H                  0.55991000   -4.14592000    2.65370300
 H                  1.49899400   -4.79167300    1.27970000
 H                 -1.19385100    1.83507900   -1.32150200
 H                 -1.33145100    0.34009100    1.30570700
 H                  1.11595500    1.91691000    0.49104600
 H                  2.01050800   -0.36929300    1.67244800
 H                  1.83713100    1.20978500    2.46549700
 H                 -0.62549100   -0.12391100   -3.35766600
 H                  0.37545200    1.24965000   -2.84523300
 H                  3.75982900   -3.93844100    2.42735400
 H                  2.59079800   -3.68291100    3.75186500
 H                  2.96449400   -1.25713800    3.67690300
 H                  4.46945600   -2.15358600    4.03998300
 H                  5.48775300   -0.20972700    3.42143500
 H                  4.17309400    0.65185300    2.61259500
 H                  6.50480100    1.17339000    1.82203700
 H                  6.71255900   -0.51827400    1.36468500
 H                  2.41767600    4.71062500    4.41682400
 H                  1.07090200    5.62585200    5.06532500
 H                 -0.33789400    3.43072900    4.58112700
 H                  0.69935700    3.55460900    6.01176400
 H                  1.64532800    0.43281100    4.98613100
 H                  0.34578200    1.28528100    5.83673400
 H                 -0.63664700    1.50087300    3.33289800
 H                 -0.94520100    0.06619200    4.32083400
 H                  3.31181700    2.92578200   -3.36401200
 H                  3.05669200    4.56085100   -3.95764500
 H                  1.32048300    3.68867200   -5.56180800
 H                  2.93133200    3.00769900   -5.83923100
 H                  3.19959100    0.90695500   -4.18992700
 H                  2.87272900    0.50841400   -5.89340600
 H                  0.73109400   -0.65004000   -5.03943200
 H                  2.27963800   -1.42419000   -4.65251900
 H                  3.70229900    4.16475200   -1.33448600
 H                  2.43146500    5.10130300   -0.56147000
 H                  6.27128100   -0.68670300   -2.97742200
 H                  7.58873200   -2.68676400   -3.58777700
 H                  9.51722900   -3.37948700   -2.18708400
 H                 10.15277900   -2.01951500   -0.21047200
 H                  8.84337600   -0.01126800    0.38636500
 H                  6.11292700    1.37088000   -1.71722600
 H                  7.18689600    1.72262400   -0.36106500
 H                  1.21047600    7.11982900    1.38364400
 H                  0.59021700    8.61258600   -0.50561000
 H                 -1.79594300    8.89902100   -1.13031900
 H                 -3.55073500    7.68289300    0.13693200
 H                 -2.92022500    6.17168700    1.98749500
 H                 -0.70381400    6.18179800    3.89465800
 H                 -1.13848000    4.76300600    2.94335400
 H                 -4.22837700   -3.66020100    4.38224500
 H                 -3.88233400   -3.58243000    6.83920600
 H                 -1.70181600   -2.83774200    7.75975500
 H                  0.12960600   -2.18666800    6.21522400
 H                 -0.23138100   -2.24604500    3.76890400
 H                 -2.02555600   -2.11627100    1.96785200
 H                 -3.53433400   -3.00969300    2.18676700
 H                 -5.49252500   -1.85809700   -0.40619500
 H                 -6.68298600   -1.19604300    1.65183000
 H                 -7.02418900   -2.85167800    3.47802500
 H                 -6.14312000   -5.16116000    3.22664600
 H                 -4.91317800   -5.80081800    1.17323000
 H                 -4.37955500   -3.47867900   -1.73988300
 H                 -4.88903700   -5.15500700   -1.47230600
 H                 -4.82539700    1.47301300   -0.39776600
 H                 -7.28932600    1.30067800   -0.32030000
 H                 -8.48183100   -0.21967000   -1.87849100
 H                 -7.18373500   -1.55105600   -3.52982300
 H                 -4.72181500   -1.38848100   -3.58636600
 H                 -2.81022300    0.96197900   -2.75917500
 H                 -2.70730300   -0.79367600   -2.47114000
 H                 -3.76087000    0.18852400    1.39767000
 H                 -4.50077200   -1.09550700    3.37351900
 H                 -4.26341800   -0.14223800    5.64660000
 H                 -3.40442900    2.17778300    5.92679700
 H                 -2.69499700    3.47609800    3.94500600
 H                 -2.63012500    3.74160900    1.52634600
 H                 -3.11260600    2.43098000    0.43926300
 H                 -4.01195800   -4.28207600   -4.87672800
 H                 -5.80785400   -3.27918000   -6.25924900
 H                 -5.55034700   -0.97791900   -7.14868400
 H                 -3.47868800    0.30388700   -6.67914600
 H                 -1.68438500   -0.70420600   -5.31012900
 H                 -0.72755800   -2.62115900   -4.22857500
 H                 -1.51469000   -4.21272200   -4.31674900
 H                 -1.10763500    5.45803400   -0.89230800
 H                 -3.47969700    4.83737000   -0.62334500
 H                 -4.61353100    3.44762200   -2.34996100
 H                 -3.34592200    2.69528700   -4.34279000
 H                 -0.95085800    3.28508700   -4.58739300
 H                  0.69619500    5.25435800   -3.96279200
 H                  0.83094600    5.63102600   -2.25117900
 C                  4.29105800   -2.36075200   -1.14521100
 N                  3.13698900   -1.70545900   -0.45745300
 H                  5.10427300   -1.64330900   -1.03692400
 C                  3.97515400   -2.55988700   -2.61867600
 C                  5.37429000   -5.95851500    0.95152500
 C                  6.25522700   -4.88193800    0.89867500
 C                  5.89784900   -3.72031800    0.21933300
 C                  4.65958600   -3.62959900   -0.41463900
 C                  3.78216800   -4.71483800   -0.36646000
 C                  4.13613400   -5.87301700    0.31722900
 H                  5.65191100   -6.86486700    1.48065300
 H                  7.22367200   -4.94623900    1.38488100
 H                  6.58747300   -2.88083900    0.17466100
 H                  2.80796800   -4.65150200   -0.84568000
 H                  3.44658200   -6.71118200    0.35235700
 H                  3.07261100   -3.16303400   -2.76468000
 H                  3.82752700   -1.59195000   -3.10563800
 H                  4.81350000   -3.06940200   -3.09971700
 H                  2.81347300   -0.85110500   -0.92475400
 H                  3.42525500   -1.47617500    0.50920100
 H                  2.29784400   -2.31124800   -0.38292200
