131
sacharoza5Bn_RPEA_step_938_wB97XD_631gd_FREQ.gjf
 C                  0.80495000   -0.08485700   -2.17948900
 C                  1.78917300    0.99591500   -1.73754100
 C                  2.74760700    0.50667700   -0.64877400
 C                  3.29294300   -0.88608700   -0.97342900
 C                  2.14450600   -1.83244500   -1.34757000
 O                  1.45078300   -1.32716800   -2.47184500
 O                  1.26419300   -1.91026800   -0.26469800
 C                  0.88108200   -3.17184500    0.24691300
 O                  0.60481000   -4.09464600   -0.77032600
 C                 -0.43797400   -2.94579400    1.04008700
 C                 -1.51279800   -3.71288800    0.25779800
 C                 -0.78697300   -4.40150100   -0.89962800
 C                  2.01697900   -3.74315400    1.09849400
 O                  2.44477000   -2.82567400    2.06539500
 C                 -1.26909400   -3.93958200   -2.26733600
 C                 -0.02147400    0.33545700   -3.39380100
 O                 -1.05692000   -2.54726500   -2.41842900
 O                 -1.39198800   -0.03272200   -3.28489500
 O                 -0.85153500   -1.60531800    1.15596100
 C                 -0.97932400    0.43251400    2.31500600
 C                 -2.26230900    0.38505200    2.86698100
 C                 -3.06072300    1.52340900    2.90540700
 C                 -2.57452400    2.72760400    2.39649500
 C                 -1.28784800    2.78885500    1.86883200
 C                 -0.49595400    1.64229600    1.81935300
 C                 -0.19216200   -0.83788300    2.17139800
 O                 -2.16287600   -4.69780500    1.02285400
 C                 -4.31153300   -3.57164200    1.37360700
 C                 -4.87472900   -2.41083100    1.90271500
 C                 -6.07520700   -1.91160700    1.40174800
 C                 -6.71692900   -2.56630800    0.35441400
 C                 -6.14885300   -3.71470800   -0.19444900
 C                 -4.95425500   -4.21512600    0.31323200
 C                 -3.06109900   -4.17031100    1.98214700
 O                  3.95669500   -1.40163100    0.16647400
 C                  6.30417300   -1.50397700   -0.49073200
 C                  7.08011500   -0.89309400    0.49782100
 C                  8.18828000   -0.12867500    0.15324200
 C                  8.53553500    0.02870600   -1.18742900
 C                  7.77809700   -0.58753700   -2.17811500
 C                  6.66831000   -1.35278800   -1.82887000
 C                  5.06818400   -2.27069000   -0.10535500
 O                  3.75615100    1.48081300   -0.54867000
 C                  3.50203400    1.92314600    1.85606300
 C                  3.17800800    0.95824700    2.81122100
 C                  2.33468000    1.26746600    3.87656000
 C                  1.80082000    2.54702900    3.99141100
 C                  2.10784400    3.51506600    3.03664500
 C                  2.95228500    3.20192700    1.97755900
 C                  4.42554000    1.59023700    0.70925700
 O                  0.95481000    2.01882400   -1.23862800
 C                  0.30465200    4.27096300   -0.95994200
 C                  0.61391600    5.32900800   -0.10755500
 C                 -0.38956800    6.16917600    0.37280100
 C                 -1.71477700    5.94646400    0.01108900
 C                 -2.03266800    4.88969700   -0.84104500
 C                 -1.02755300    4.06238300   -1.32702600
 C                  1.38076900    3.35403900   -1.47479500
 H                  0.13986600   -0.24909700   -1.32741100
 H                  2.38328000    1.34977100   -2.59328000
 H                  2.17574200    0.43610000    0.28516000
 H                  3.98711900   -0.80561600   -1.81813000
 H                  2.50601200   -2.81967200   -1.64506300
 H                 -0.32462600   -3.38213500    2.04067800
 H                 -2.23906500   -2.98207900   -0.11888900
 H                 -0.90681700   -5.48525200   -0.80550600
 H                  2.83022600   -4.05617800    0.42586300
 H                  1.65635700   -4.63955000    1.61120500
 H                  2.90135100   -2.12222800    1.57019600
 H                 -0.75445800   -4.49895600   -3.05794100
 H                 -2.34414400   -4.11856700   -2.35971300
 H                 -0.01573100    1.42344200   -3.47800200
 H                  0.42288600   -0.08703700   -4.30221100
 H                 -0.09267300   -2.39318400   -2.43429000
 H                 -1.45181000   -1.01019600   -3.27932200
 H                 -2.63266500   -0.55468500    3.26837200
 H                 -4.05426700    1.47457700    3.34205400
 H                 -3.19082500    3.62110300    2.41877500
 H                 -0.89393100    3.72728700    1.49662400
 H                  0.49645200    1.69876800    1.38188300
 H                  0.84701400   -0.64681000    1.89159000
 H                 -0.18818300   -1.41801000    3.10387800
 H                 -4.38606800   -1.90623500    2.73256000
 H                 -6.51285400   -1.01678700    1.83506700
 H                 -7.65582200   -2.18372200   -0.03421800
 H                 -6.64540800   -4.22807900   -1.01224600
 H                 -4.51646700   -5.11828500   -0.10255600
 H                 -2.56053500   -3.42571100    2.61977500
 H                 -3.32404800   -5.02101000    2.61742200
 H                  6.81501900   -1.02250900    1.54478000
 H                  8.78700900    0.33789100    0.92928800
 H                  9.40339200    0.62232000   -1.45744900
 H                  8.05243500   -0.47710200   -3.22250600
 H                  6.08950800   -1.84797300   -2.60578300
 H                  4.79337400   -2.99186600   -0.88662400
 H                  5.21442500   -2.82106100    0.82755800
 H                  3.60185200   -0.03946000    2.72534600
 H                  2.09817500    0.50862100    4.61634000
 H                  1.14050200    2.79027900    4.81780400
 H                  1.68910900    4.51346400    3.12059800
 H                  3.21146100    3.96198800    1.24477900
 H                  5.14974200    2.39371500    0.55288300
 H                  4.97841200    0.67321700    0.92187300
 H                  1.64693400    5.50277300    0.18176000
 H                 -0.13405400    6.99266700    1.03263600
 H                 -2.49802700    6.59802500    0.38641000
 H                 -3.06342200    4.71021800   -1.12732700
 H                 -1.28232200    3.24296700   -1.99481900
 H                  1.53051300    3.50049100   -2.55621800
 H                  2.33690200    3.54040000   -0.97679200
 C                 -5.09439800    2.37277400   -0.28102100
 C                 -5.67861100    3.53966400   -0.76761600
 C                 -5.43571100    3.94588900   -2.07625000
 C                 -4.59719000    3.18895300   -2.89315200
 C                 -4.02024500    2.01949200   -2.41021000
 C                 -4.27276000    1.59975500   -1.09986800
 C                 -3.71645500    0.29075200   -0.58737300
 C                 -4.18524600   -0.91405300   -1.39324000
 N                 -2.21291300    0.33030300   -0.62235700
 H                 -5.28618700    2.05547500    0.74055700
 H                 -6.32589500    4.12854100   -0.12541000
 H                 -5.89448600    4.85167900   -2.45991100
 H                 -4.40048900    3.50497900   -3.91267700
 H                 -3.37971800    1.42994600   -3.06279200
 H                 -3.98136600    0.16023500    0.46450600
 H                 -3.82336800   -1.84926700   -0.95745700
 H                 -5.27534900   -0.94723200   -1.38259300
 H                 -3.85447400   -0.84750400   -2.43390700
 H                 -1.88241200    0.27704200   -1.61263300
 H                 -1.79616300   -0.46175800   -0.09845700
 H                 -1.84692400    1.19022500   -0.19524100

