66
sacharoza
 C                 -2.77724400    0.21163000   -1.01530800
 C                 -3.24539900   -1.11026900   -0.36974000
 C                 -2.78252300   -1.32187200    1.07247100
 C                 -2.66865200   -0.03229500    1.86571900
 C                 -1.96678800    1.03875000    1.03772400
 O                 -2.76054900    1.30913100   -0.10309700
 O                 -0.72624400    0.57485000    0.60022200
 C                  0.48908600    1.21412000    0.97211100
 O                  0.31059300    2.56722200    1.25358200
 C                  1.45708900    1.12443600   -0.25642500
 C                  2.03133300    2.54623600   -0.32844800
 C                  0.90815400    3.40445000    0.25318100
 C                  1.01497900    0.51179400    2.23280100
 O                  0.72040200   -0.87800600    2.20548100
 O                  0.84378300    0.71945500   -1.45841000
 O                  3.13404100    2.68395300    0.53890000
 C                 -0.13646100    3.90210800   -0.74251900
 O                 -1.91131400   -0.25405500    3.04391900
 O                 -3.64222800   -2.16756300    1.80081600
 O                 -2.71858400   -2.20746700   -1.11078300
 C                 -3.67818400    0.61029600   -2.17335200
 O                 -0.78715000    2.85643400   -1.45776000
 O                 -3.68380800   -0.50416500   -3.05252700
 H                 -1.76659300    0.05343400   -1.40495200
 H                 -4.34337800   -1.14249000   -0.36845000
 H                 -1.77550700   -1.75567100    1.03963600
 H                 -3.66955300    0.33867400    2.11683400
 H                 -1.87242500    1.97618100    1.58688500
 H                  2.25393800    0.40556700   -0.06262800
 H                  2.27910600    2.81162400   -1.36439600
 H                  1.33664000    4.26577200    0.77284400
 H                  0.55534700    0.98420600    3.10656900
 H                  2.09798100    0.64079000    2.29649200
 H                 -0.17661900   -0.93908300    2.58644800
 H                  0.17657800    1.40999500   -1.68092400
 H                  3.84269600    2.11087800    0.21722800
 H                 -0.87733100    4.50512300   -0.20681700
 H                  0.34971400    4.54539900   -1.48183300
 H                 -2.41785900   -0.86489800    3.59775700
 H                 -3.64822500   -3.03662300    1.37937200
 H                 -3.05531000   -2.10013100   -2.01801400
 H                 -4.68496300    0.83243500   -1.79513100
 H                 -3.27770100    1.50762800   -2.66178300
 H                 -1.55887800    2.54805900   -0.95013300
 H                 -4.31316300   -0.34733600   -3.76537900
 C                  3.25964800   -1.96801800    0.56927600
 C                  4.42142000   -1.22331400    0.74991900
 C                  5.03234800   -0.60218000   -0.33858400
 C                  4.47822400   -0.73095500   -1.61020700
 C                  3.31607800   -1.47550000   -1.78934100
 C                  2.69601500   -2.09666300   -0.70364900
 C                  1.37053400   -2.80267200   -0.91497000
 C                  1.16018400   -4.07930200   -0.11237200
 N                  0.28012800   -1.82375900   -0.57051100
 H                  2.78567500   -2.42267700    1.43261900
 H                  4.85379800   -1.13336400    1.74136700
 H                  5.95017200   -0.03862600   -0.19823400
 H                  4.95405800   -0.26083100   -2.46488100
 H                  2.88216000   -1.56288900   -2.78182800
 H                  1.24621800   -3.01443900   -1.98063100
 H                  1.95464100   -4.79337600   -0.34024800
 H                  1.17491600   -3.88487700    0.96453700
 H                  0.20119100   -4.54272300   -0.36501200
 H                  0.34287500   -1.55813100    0.43454100
 H                 -0.67134300   -2.17347700   -0.77511900
 H                  0.39968400   -0.92080500   -1.08562100
